Circuit: * Pixel sensor testbench

Error on line 37 : .model  nmos  nmos  level = 54 version = 4.5.0          binunit = 1            paramchk= 1            mobmod  = 0 capmod  = 2            igcmod  = 1            igbmod  = 1            geomod  = 1 diomod  = 1            rdsmod  = 0            rbodymod= 1            rgatemod= 1 permod  = 1            acnqsmod= 0            trnqsmod= 0 tnom    = 27           toxe    = 2.25e-9      toxp    = 1.6e-9       toxm    = 2.25e-9 dtox    = 0.65e-9      epsrox  = 3.9          wint    = 5e-009       lint    = 10.5e-009 ll      = 0            wl      = 0            lln     = 1            wln     = 1 lw      = 0            ww      = 0            lwn     = 1            wwn     = 1 lwl     = 0            wwl     = 0            xpart   = 0            toxref  = 2.25e-9 xl      = -60e-9 vth0    = 0.3782       k1      = 0.4          k2      = 0.01         k3      = 0 k3b     = 0            w0      = 2.5e-006     dvt0    = 1            dvt1    = 2 dvt2    = -0.032       dvt0w   = 0            dvt1w   = 0            dvt2w   = 0 dsub    = 0.1          minv    = 0.05         voffl   = 0            dvtp0   = 1.2e-010 dvtp1   = 0.1          lpe0    = 0            lpeb    = 0            xj      = 3.92e-008 ngate   = 2e+020       ndep    = 1.54e+018    nsd     = 2e+020       phin    = 0 cdsc    = 0.0002       cdscb   = 0            cdscd   = 0            cit     = 0 voff    = -0.13        nfactor = 1.5          eta0    = 0.0092       etab    = 0 vfb     = -0.55        u0      = 0.05928      ua      = 6e-010       ub      = 1.2e-018 uc      = 0            vsat    = 100370       a0      = 1            ags     = 1e-020 a1      = 0            a2      = 1            b0      = 0            b1      = 0 keta    = 0.04         dwg     = 0            dwb     = 0            pclm    = 0.06 pdiblc1 = 0.001        pdiblc2 = 0.001        pdiblcb = -0.005       drout   = 0.5 pvag    = 1e-020       delta   = 0.01         pscbe1  = 8.14e+008    pscbe2  = 1e-007 fprout  = 0.2          pdits   = 0.08         pditsd  = 0.23         pditsl  = 2.3e+006 rsh     = 5            rdsw    = 200          rsw     = 100          rdw     = 100 rdswmin = 0            rdwmin  = 0            rswmin  = 0            prwg    = 0 prwb    = 6.8e-011     wr      = 1            alpha0  = 0.074        alpha1  = 0.005 beta0   = 30           agidl   = 0.0002       bgidl   = 2.1e+009     cgidl   = 0.0002 egidl   = 0.8 aigbacc = 0.012        bigbacc = 0.0028       cigbacc = 0.002 nigbacc = 1            aigbinv = 0.014        bigbinv = 0.004        cigbinv = 0.004 eigbinv = 1.1          nigbinv = 3            aigc    = 0.012        bigc    = 0.0028 cigc    = 0.002        aigsd   = 0.012        bigsd   = 0.0028       cigsd   = 0.002 nigc    = 1            poxedge = 1            pigcd   = 1            ntox    = 1 xrcrg1  = 12           xrcrg2  = 5 cgso    = 2.4e-010     cgdo    = 2.4e-010     cgbo    = 2.56e-011    cgdl    = 2.653e-10 cgsl    = 2.653e-10    ckappas = 0.03         ckappad = 0.03         acde    = 1 moin    = 15           noff    = 0.9          voffcv  = 0.02 kt1     = -0.11        kt1l    = 0            kt2     = 0.022        ute     = -1.5 ua1     = 4.31e-009    ub1     = 7.61e-018    uc1     = -5.6e-011    prt     = 0 at      = 33000 fnoimod = 1            tnoimod = 0 jss     = 0.0001       jsws    = 1e-011       jswgs   = 1e-010       njs     = 1 ijthsfwd= 0.01         ijthsrev= 0.001        bvs     = 10           xjbvs   = 1 jsd     = 0.0001       jswd    = 1e-011       jswgd   = 1e-010       njd     = 1 ijthdfwd= 0.01         ijthdrev= 0.001        bvd     = 10           xjbvd   = 1 pbs     = 1            cjs     = 0.0005       mjs     = 0.5          pbsws   = 1 cjsws   = 5e-010       mjsws   = 0.33         pbswgs  = 1            cjswgs  = 3e-010 mjswgs  = 0.33         pbd     = 1            cjd     = 0.0005       mjd     = 0.5 pbswd   = 1            cjswd   = 5e-010       mjswd   = 0.33         pbswgd  = 1 cjswgd  = 5e-010       mjswgd  = 0.33         tpb     = 0.005        tcj     = 0.001 tpbsw   = 0.005        tcjsw   = 0.001        tpbswg  = 0.005        tcjswg  = 0.001 xtis    = 3            xtid    = 3 dmcg    = 0e-006       dmci    = 0e-006       dmdg    = 0e-006       dmcgt   = 0e-007 dwj     = 0.0e-008     xgw     = 0e-007       xgl     = 0e-008 rshg    = 0.4          gbmin   = 1e-010       rbpb    = 5            rbpd    = 15 rbps    = 15           rbdb    = 15           rbsb    = 15           ngcon   = 1
unrecognized parameter (version) - ignored

unrecognized parameter (4.5.0) - ignored

unrecognized parameter (binunit) - ignored

unrecognized parameter (1) - ignored

unrecognized parameter (paramchk) - ignored

unrecognized parameter (1) - ignored

unrecognized parameter (mobmod) - ignored

unrecognized parameter (0) - ignored

unrecognized parameter (capmod) - ignored

unrecognized parameter (2) - ignored

unrecognized parameter (igcmod) - ignored

unrecognized parameter (1) - ignored

unrecognized parameter (igbmod) - ignored

unrecognized parameter (1) - ignored

unrecognized parameter (geomod) - ignored

unrecognized parameter (1) - ignored

unrecognized parameter (diomod) - ignored

unrecognized parameter (1) - ignored

unrecognized parameter (rdsmod) - ignored

unrecognized parameter (0) - ignored

unrecognized parameter (rbodymod) - ignored

unrecognized parameter (1) - ignored

unrecognized parameter (rgatemod) - ignored

unrecognized parameter (1) - ignored

unrecognized parameter (permod) - ignored

unrecognized parameter (1) - ignored

unrecognized parameter (acnqsmod) - ignored

unrecognized parameter (0) - ignored

unrecognized parameter (trnqsmod) - ignored

unrecognized parameter (0) - ignored

unrecognized parameter (tnom) - ignored

unrecognized parameter (27) - ignored

unrecognized parameter (toxe) - ignored

unrecognized parameter (2.25e-9) - ignored

unrecognized parameter (toxp) - ignored

unrecognized parameter (1.6e-9) - ignored

unrecognized parameter (toxm) - ignored

unrecognized parameter (2.25e-9) - ignored

unrecognized parameter (dtox) - ignored

unrecognized parameter (0.65e-9) - ignored

unrecognized parameter (epsrox) - ignored

unrecognized parameter (3.9) - ignored

unrecognized parameter (wint) - ignored

unrecognized parameter (5e-009) - ignored

unrecognized parameter (lint) - ignored

unrecognized parameter (10.5e-009) - ignored

unrecognized parameter (ll) - ignored

unrecognized parameter (0) - ignored

unrecognized parameter (wl) - ignored

unrecognized parameter (0) - ignored

unrecognized parameter (lln) - ignored

unrecognized parameter (1) - ignored

unrecognized parameter (wln) - ignored

unrecognized parameter (1) - ignored

unrecognized parameter (lw) - ignored

unrecognized parameter (0) - ignored

unrecognized parameter (ww) - ignored

unrecognized parameter (0) - ignored

unrecognized parameter (lwn) - ignored

unrecognized parameter (1) - ignored

unrecognized parameter (wwn) - ignored

unrecognized parameter (1) - ignored

unrecognized parameter (lwl) - ignored

unrecognized parameter (0) - ignored

unrecognized parameter (wwl) - ignored

unrecognized parameter (0) - ignored

unrecognized parameter (toxref) - ignored

unrecognized parameter (2.25e-9) - ignored

unrecognized parameter (xl) - ignored

unrecognized parameter (-60e-9) - ignored

unrecognized parameter (vth0) - ignored

unrecognized parameter (0.3782) - ignored

unrecognized parameter (k3) - ignored

unrecognized parameter (0) - ignored

unrecognized parameter (k3b) - ignored

unrecognized parameter (0) - ignored

unrecognized parameter (w0) - ignored

unrecognized parameter (2.5e-006) - ignored

unrecognized parameter (dvt0) - ignored

unrecognized parameter (1) - ignored

unrecognized parameter (dvt1) - ignored

unrecognized parameter (2) - ignored

unrecognized parameter (dvt2) - ignored

unrecognized parameter (-0.032) - ignored

unrecognized parameter (dvt0w) - ignored

unrecognized parameter (0) - ignored

unrecognized parameter (dvt1w) - ignored

unrecognized parameter (0) - ignored

unrecognized parameter (dvt2w) - ignored

unrecognized parameter (0) - ignored

unrecognized parameter (dsub) - ignored

unrecognized parameter (0.1) - ignored

unrecognized parameter (minv) - ignored

unrecognized parameter (0.05) - ignored

unrecognized parameter (voffl) - ignored

unrecognized parameter (0) - ignored

unrecognized parameter (dvtp0) - ignored

unrecognized parameter (1.2e-010) - ignored

unrecognized parameter (dvtp1) - ignored

unrecognized parameter (0.1) - ignored

unrecognized parameter (lpe0) - ignored

unrecognized parameter (0) - ignored

unrecognized parameter (lpeb) - ignored

unrecognized parameter (0) - ignored

unrecognized parameter (xj) - ignored

unrecognized parameter (3.92e-008) - ignored

unrecognized parameter (ngate) - ignored

unrecognized parameter (2e+020) - ignored

unrecognized parameter (ndep) - ignored

unrecognized parameter (1.54e+018) - ignored

unrecognized parameter (nsd) - ignored

unrecognized parameter (2e+020) - ignored

unrecognized parameter (phin) - ignored

unrecognized parameter (0) - ignored

unrecognized parameter (cdsc) - ignored

unrecognized parameter (0.0002) - ignored

unrecognized parameter (cdscb) - ignored

unrecognized parameter (0) - ignored

unrecognized parameter (cdscd) - ignored

unrecognized parameter (0) - ignored

unrecognized parameter (cit) - ignored

unrecognized parameter (0) - ignored

unrecognized parameter (voff) - ignored

unrecognized parameter (-0.13) - ignored

unrecognized parameter (nfactor) - ignored

unrecognized parameter (1.5) - ignored

unrecognized parameter (u0) - ignored

unrecognized parameter (0.05928) - ignored

unrecognized parameter (ua) - ignored

unrecognized parameter (6e-010) - ignored

unrecognized parameter (ub) - ignored

unrecognized parameter (1.2e-018) - ignored

unrecognized parameter (uc) - ignored

unrecognized parameter (0) - ignored

unrecognized parameter (vsat) - ignored

unrecognized parameter (100370) - ignored

unrecognized parameter (a0) - ignored

unrecognized parameter (1) - ignored

unrecognized parameter (ags) - ignored

unrecognized parameter (1e-020) - ignored

unrecognized parameter (a1) - ignored

unrecognized parameter (0) - ignored

unrecognized parameter (a2) - ignored

unrecognized parameter (1) - ignored

unrecognized parameter (b0) - ignored

unrecognized parameter (0) - ignored

unrecognized parameter (b1) - ignored

unrecognized parameter (0) - ignored

unrecognized parameter (keta) - ignored

unrecognized parameter (0.04) - ignored

unrecognized parameter (dwg) - ignored

unrecognized parameter (0) - ignored

unrecognized parameter (dwb) - ignored

unrecognized parameter (0) - ignored

unrecognized parameter (pclm) - ignored

unrecognized parameter (0.06) - ignored

unrecognized parameter (pdiblc1) - ignored

unrecognized parameter (0.001) - ignored

unrecognized parameter (pdiblc2) - ignored

unrecognized parameter (0.001) - ignored

unrecognized parameter (pdiblcb) - ignored

unrecognized parameter (-0.005) - ignored

unrecognized parameter (drout) - ignored

unrecognized parameter (0.5) - ignored

unrecognized parameter (pvag) - ignored

unrecognized parameter (1e-020) - ignored

unrecognized parameter (delta) - ignored

unrecognized parameter (0.01) - ignored

unrecognized parameter (pscbe1) - ignored

unrecognized parameter (8.14e+008) - ignored

unrecognized parameter (pscbe2) - ignored

unrecognized parameter (1e-007) - ignored

unrecognized parameter (fprout) - ignored

unrecognized parameter (0.2) - ignored

unrecognized parameter (pdits) - ignored

unrecognized parameter (0.08) - ignored

unrecognized parameter (pditsd) - ignored

unrecognized parameter (0.23) - ignored

unrecognized parameter (pditsl) - ignored

unrecognized parameter (2.3e+006) - ignored

unrecognized parameter (rdsw) - ignored

unrecognized parameter (200) - ignored

unrecognized parameter (rsw) - ignored

unrecognized parameter (100) - ignored

unrecognized parameter (rdw) - ignored

unrecognized parameter (100) - ignored

unrecognized parameter (rdswmin) - ignored

unrecognized parameter (0) - ignored

unrecognized parameter (rdwmin) - ignored

unrecognized parameter (0) - ignored

unrecognized parameter (rswmin) - ignored

unrecognized parameter (0) - ignored

unrecognized parameter (prwg) - ignored

unrecognized parameter (0) - ignored

unrecognized parameter (prwb) - ignored

unrecognized parameter (6.8e-011) - ignored

unrecognized parameter (wr) - ignored

unrecognized parameter (1) - ignored

unrecognized parameter (alpha0) - ignored

unrecognized parameter (0.074) - ignored

unrecognized parameter (alpha1) - ignored

unrecognized parameter (0.005) - ignored

unrecognized parameter (beta0) - ignored

unrecognized parameter (30) - ignored

unrecognized parameter (agidl) - ignored

unrecognized parameter (0.0002) - ignored

unrecognized parameter (bgidl) - ignored

unrecognized parameter (2.1e+009) - ignored

unrecognized parameter (cgidl) - ignored

unrecognized parameter (0.0002) - ignored

unrecognized parameter (egidl) - ignored

unrecognized parameter (0.8) - ignored

unrecognized parameter (aigbacc) - ignored

unrecognized parameter (0.012) - ignored

unrecognized parameter (bigbacc) - ignored

unrecognized parameter (0.0028) - ignored

unrecognized parameter (cigbacc) - ignored

unrecognized parameter (0.002) - ignored

unrecognized parameter (nigbacc) - ignored

unrecognized parameter (1) - ignored

unrecognized parameter (aigbinv) - ignored

unrecognized parameter (0.014) - ignored

unrecognized parameter (bigbinv) - ignored

unrecognized parameter (0.004) - ignored

unrecognized parameter (cigbinv) - ignored

unrecognized parameter (0.004) - ignored

unrecognized parameter (eigbinv) - ignored

unrecognized parameter (1.1) - ignored

unrecognized parameter (nigbinv) - ignored

unrecognized parameter (3) - ignored

unrecognized parameter (aigc) - ignored

unrecognized parameter (0.012) - ignored

unrecognized parameter (bigc) - ignored

unrecognized parameter (0.0028) - ignored

unrecognized parameter (cigc) - ignored

unrecognized parameter (0.002) - ignored

unrecognized parameter (aigsd) - ignored

unrecognized parameter (0.012) - ignored

unrecognized parameter (bigsd) - ignored

unrecognized parameter (0.0028) - ignored

unrecognized parameter (cigsd) - ignored

unrecognized parameter (0.002) - ignored

unrecognized parameter (nigc) - ignored

unrecognized parameter (1) - ignored

unrecognized parameter (poxedge) - ignored

unrecognized parameter (1) - ignored

unrecognized parameter (pigcd) - ignored

unrecognized parameter (1) - ignored

unrecognized parameter (ntox) - ignored

unrecognized parameter (1) - ignored

unrecognized parameter (xrcrg1) - ignored

unrecognized parameter (12) - ignored

unrecognized parameter (xrcrg2) - ignored

unrecognized parameter (5) - ignored

unrecognized parameter (cgdl) - ignored

unrecognized parameter (2.653e-10) - ignored

unrecognized parameter (cgsl) - ignored

unrecognized parameter (2.653e-10) - ignored

unrecognized parameter (ckappas) - ignored

unrecognized parameter (0.03) - ignored

unrecognized parameter (ckappad) - ignored

unrecognized parameter (0.03) - ignored

unrecognized parameter (acde) - ignored

unrecognized parameter (1) - ignored

unrecognized parameter (moin) - ignored

unrecognized parameter (15) - ignored

unrecognized parameter (noff) - ignored

unrecognized parameter (0.9) - ignored

unrecognized parameter (voffcv) - ignored

unrecognized parameter (0.02) - ignored

unrecognized parameter (kt1) - ignored

unrecognized parameter (-0.11) - ignored

unrecognized parameter (kt1l) - ignored

unrecognized parameter (0) - ignored

unrecognized parameter (kt2) - ignored

unrecognized parameter (0.022) - ignored

unrecognized parameter (ute) - ignored

unrecognized parameter (-1.5) - ignored

unrecognized parameter (ua1) - ignored

unrecognized parameter (4.31e-009) - ignored

unrecognized parameter (ub1) - ignored

unrecognized parameter (7.61e-018) - ignored

unrecognized parameter (uc1) - ignored

unrecognized parameter (-5.6e-011) - ignored

unrecognized parameter (prt) - ignored

unrecognized parameter (0) - ignored

unrecognized parameter (at) - ignored

unrecognized parameter (33000) - ignored

unrecognized parameter (fnoimod) - ignored

unrecognized parameter (1) - ignored

unrecognized parameter (tnoimod) - ignored

unrecognized parameter (0) - ignored

unrecognized parameter (jss) - ignored

unrecognized parameter (0.0001) - ignored

unrecognized parameter (jsws) - ignored

unrecognized parameter (1e-011) - ignored

unrecognized parameter (jswgs) - ignored

unrecognized parameter (1e-010) - ignored

unrecognized parameter (njs) - ignored

unrecognized parameter (1) - ignored

unrecognized parameter (ijthsfwd) - ignored

unrecognized parameter (0.01) - ignored

unrecognized parameter (ijthsrev) - ignored

unrecognized parameter (0.001) - ignored

unrecognized parameter (bvs) - ignored

unrecognized parameter (10) - ignored

unrecognized parameter (xjbvs) - ignored

unrecognized parameter (1) - ignored

unrecognized parameter (jsd) - ignored

unrecognized parameter (0.0001) - ignored

unrecognized parameter (jswd) - ignored

unrecognized parameter (1e-011) - ignored

unrecognized parameter (jswgd) - ignored

unrecognized parameter (1e-010) - ignored

unrecognized parameter (njd) - ignored

unrecognized parameter (1) - ignored

unrecognized parameter (ijthdfwd) - ignored

unrecognized parameter (0.01) - ignored

unrecognized parameter (ijthdrev) - ignored

unrecognized parameter (0.001) - ignored

unrecognized parameter (bvd) - ignored

unrecognized parameter (10) - ignored

unrecognized parameter (xjbvd) - ignored

unrecognized parameter (1) - ignored

unrecognized parameter (pbs) - ignored

unrecognized parameter (1) - ignored

unrecognized parameter (cjs) - ignored

unrecognized parameter (0.0005) - ignored

unrecognized parameter (mjs) - ignored

unrecognized parameter (0.5) - ignored

unrecognized parameter (pbsws) - ignored

unrecognized parameter (1) - ignored

unrecognized parameter (cjsws) - ignored

unrecognized parameter (5e-010) - ignored

unrecognized parameter (mjsws) - ignored

unrecognized parameter (0.33) - ignored

unrecognized parameter (pbswgs) - ignored

unrecognized parameter (1) - ignored

unrecognized parameter (cjswgs) - ignored

unrecognized parameter (3e-010) - ignored

unrecognized parameter (mjswgs) - ignored

unrecognized parameter (0.33) - ignored

unrecognized parameter (pbd) - ignored

unrecognized parameter (1) - ignored

unrecognized parameter (cjd) - ignored

unrecognized parameter (0.0005) - ignored

unrecognized parameter (mjd) - ignored

unrecognized parameter (0.5) - ignored

unrecognized parameter (pbswd) - ignored

unrecognized parameter (1) - ignored

unrecognized parameter (cjswd) - ignored

unrecognized parameter (5e-010) - ignored

unrecognized parameter (mjswd) - ignored

unrecognized parameter (0.33) - ignored

unrecognized parameter (pbswgd) - ignored

unrecognized parameter (1) - ignored

unrecognized parameter (cjswgd) - ignored

unrecognized parameter (5e-010) - ignored

unrecognized parameter (mjswgd) - ignored

unrecognized parameter (0.33) - ignored

unrecognized parameter (tpb) - ignored

unrecognized parameter (0.005) - ignored

unrecognized parameter (tcj) - ignored

unrecognized parameter (0.001) - ignored

unrecognized parameter (tpbsw) - ignored

unrecognized parameter (0.005) - ignored

unrecognized parameter (tcjsw) - ignored

unrecognized parameter (0.001) - ignored

unrecognized parameter (tpbswg) - ignored

unrecognized parameter (0.005) - ignored

unrecognized parameter (tcjswg) - ignored

unrecognized parameter (0.001) - ignored

unrecognized parameter (xtis) - ignored

unrecognized parameter (3) - ignored

unrecognized parameter (xtid) - ignored

unrecognized parameter (3) - ignored

unrecognized parameter (dmcg) - ignored

unrecognized parameter (0e-006) - ignored

unrecognized parameter (dmci) - ignored

unrecognized parameter (0e-006) - ignored

unrecognized parameter (dmdg) - ignored

unrecognized parameter (0e-006) - ignored

unrecognized parameter (dmcgt) - ignored

unrecognized parameter (0e-007) - ignored

unrecognized parameter (dwj) - ignored

unrecognized parameter (0.0e-008) - ignored

unrecognized parameter (xgw) - ignored

unrecognized parameter (0e-007) - ignored

unrecognized parameter (xgl) - ignored

unrecognized parameter (0e-008) - ignored

unrecognized parameter (rshg) - ignored

unrecognized parameter (0.4) - ignored

unrecognized parameter (gbmin) - ignored

unrecognized parameter (1e-010) - ignored

unrecognized parameter (rbpb) - ignored

unrecognized parameter (5) - ignored

unrecognized parameter (rbpd) - ignored

unrecognized parameter (15) - ignored

unrecognized parameter (rbps) - ignored

unrecognized parameter (15) - ignored

unrecognized parameter (rbdb) - ignored

unrecognized parameter (15) - ignored

unrecognized parameter (rbsb) - ignored

unrecognized parameter (15) - ignored

unrecognized parameter (ngcon) - ignored

unrecognized parameter (1) - ignored

Error on line 49 : .model  pmos  pmos  level = 54 version = 4.5.0          binunit = 1            paramchk= 1            mobmod  = 0 capmod  = 2            igcmod  = 1            igbmod  = 1            geomod  = 1 diomod  = 1            rdsmod  = 0            rbodymod= 1            rgatemod= 1 permod  = 1            acnqsmod= 0            trnqsmod= 0 tnom    = 27           toxe    = 2.35e-009    toxp    = 1.6e-009     toxm    = 2.35e-009 dtox    = 0.75e-9      epsrox  = 3.9          wint    = 5e-009       lint    = 10.5e-009 ll      = 0            wl      = 0            lln     = 1            wln     = 1 lw      = 0            ww      = 0            lwn     = 1            wwn     = 1 lwl     = 0            wwl     = 0            xpart   = 0            toxref  = 2.35e-009 xl      = -60e-9 vth0    = -0.321       k1      = 0.4          k2      = -0.01        k3      = 0 k3b     = 0            w0      = 2.5e-006     dvt0    = 1            dvt1    = 2 dvt2    = -0.032       dvt0w   = 0            dvt1w   = 0            dvt2w   = 0 dsub    = 0.1          minv    = 0.05         voffl   = 0            dvtp0   = 1e-009 dvtp1   = 0.05         lpe0    = 0            lpeb    = 0            xj      = 3.92e-008 ngate   = 2e+020       ndep    = 1.14e+018    nsd     = 2e+020       phin    = 0 cdsc    = 0.000258     cdscb   = 0            cdscd   = 6.1e-008     cit     = 0 voff    = -0.126       nfactor = 1.5          eta0    = 0.0092       etab    = 0 vfb     = 0.55         u0      = 0.00835      ua      = 2.0e-009     ub      = 0.5e-018 uc      = -3e-011      vsat    = 70000        a0      = 1.0          ags     = 1e-020 a1      = 0            a2      = 1            b0      = -1e-020      b1      = 0 keta    = -0.047       dwg     = 0            dwb     = 0            pclm    = 0.12 pdiblc1 = 0.001        pdiblc2 = 0.001        pdiblcb = 3.4e-008     drout   = 0.56 pvag    = 1e-020       delta   = 0.01         pscbe1  = 8.14e+008    pscbe2  = 9.58e-007 fprout  = 0.2          pdits   = 0.08         pditsd  = 0.23         pditsl  = 2.3e+006 rsh     = 5            rdsw    = 240          rsw     = 120          rdw     = 120 rdswmin = 0            rdwmin  = 0            rswmin  = 0            prwg    = 3.22e-008 prwb    = 6.8e-011     wr      = 1            alpha0  = 0.074        alpha1  = 0.005 beta0   = 30           agidl   = 0.0002       bgidl   = 2.1e+009     cgidl   = 0.0002 egidl   = 0.8 aigbacc = 0.012        bigbacc = 0.0028       cigbacc = 0.002 nigbacc = 1            aigbinv = 0.014        bigbinv = 0.004        cigbinv = 0.004 eigbinv = 1.1          nigbinv = 3            aigc    = 0.69         bigc    = 0.0012 cigc    = 0.0008       aigsd   = 0.0087       bigsd   = 0.0012       cigsd   = 0.0008 nigc    = 1            poxedge = 1            pigcd   = 1            ntox    = 1 xrcrg1  = 12           xrcrg2  = 5 cgso    = 2.4e-010     cgdo    = 2.4e-010     cgbo    = 2.56e-011    cgdl    = 2.653e-10 cgsl    = 2.653e-10    ckappas = 0.03         ckappad = 0.03         acde    = 1 moin    = 15           noff    = 0.9          voffcv  = 0.02 kt1     = -0.11        kt1l    = 0            kt2     = 0.022        ute     = -1.5 ua1     = 4.31e-009    ub1     = 7.61e-018    uc1     = -5.6e-011    prt     = 0 at      = 33000 fnoimod = 1            tnoimod = 0 jss     = 0.0001       jsws    = 1e-011       jswgs   = 1e-010       njs     = 1 ijthsfwd= 0.01         ijthsrev= 0.001        bvs     = 10           xjbvs   = 1 jsd     = 0.0001       jswd    = 1e-011       jswgd   = 1e-010       njd     = 1 ijthdfwd= 0.01         ijthdrev= 0.001        bvd     = 10           xjbvd   = 1 pbs     = 1            cjs     = 0.0005       mjs     = 0.5          pbsws   = 1 cjsws   = 5e-010       mjsws   = 0.33         pbswgs  = 1            cjswgs  = 3e-010 mjswgs  = 0.33         pbd     = 1            cjd     = 0.0005       mjd     = 0.5 pbswd   = 1            cjswd   = 5e-010       mjswd   = 0.33         pbswgd  = 1 cjswgd  = 5e-010       mjswgd  = 0.33         tpb     = 0.005        tcj     = 0.001 tpbsw   = 0.005        tcjsw   = 0.001        tpbswg  = 0.005        tcjswg  = 0.001 xtis    = 3            xtid    = 3 dmcg    = 0e-006       dmci    = 0e-006       dmdg    = 0e-006       dmcgt   = 0e-007 dwj     = 0.0e-008     xgw     = 0e-007       xgl     = 0e-008 rshg    = 0.4          gbmin   = 1e-010       rbpb    = 5            rbpd    = 15 rbps    = 15           rbdb    = 15           rbsb    = 15           ngcon   = 1
unrecognized parameter (version) - ignored

unrecognized parameter (4.5.0) - ignored

unrecognized parameter (binunit) - ignored

unrecognized parameter (1) - ignored

unrecognized parameter (paramchk) - ignored

unrecognized parameter (1) - ignored

unrecognized parameter (mobmod) - ignored

unrecognized parameter (0) - ignored

unrecognized parameter (capmod) - ignored

unrecognized parameter (2) - ignored

unrecognized parameter (igcmod) - ignored

unrecognized parameter (1) - ignored

unrecognized parameter (igbmod) - ignored

unrecognized parameter (1) - ignored

unrecognized parameter (geomod) - ignored

unrecognized parameter (1) - ignored

unrecognized parameter (diomod) - ignored

unrecognized parameter (1) - ignored

unrecognized parameter (rdsmod) - ignored

unrecognized parameter (0) - ignored

unrecognized parameter (rbodymod) - ignored

unrecognized parameter (1) - ignored

unrecognized parameter (rgatemod) - ignored

unrecognized parameter (1) - ignored

unrecognized parameter (permod) - ignored

unrecognized parameter (1) - ignored

unrecognized parameter (acnqsmod) - ignored

unrecognized parameter (0) - ignored

unrecognized parameter (trnqsmod) - ignored

unrecognized parameter (0) - ignored

unrecognized parameter (tnom) - ignored

unrecognized parameter (27) - ignored

unrecognized parameter (toxe) - ignored

unrecognized parameter (2.35e-009) - ignored

unrecognized parameter (toxp) - ignored

unrecognized parameter (1.6e-009) - ignored

unrecognized parameter (toxm) - ignored

unrecognized parameter (2.35e-009) - ignored

unrecognized parameter (dtox) - ignored

unrecognized parameter (0.75e-9) - ignored

unrecognized parameter (epsrox) - ignored

unrecognized parameter (3.9) - ignored

unrecognized parameter (wint) - ignored

unrecognized parameter (5e-009) - ignored

unrecognized parameter (lint) - ignored

unrecognized parameter (10.5e-009) - ignored

unrecognized parameter (ll) - ignored

unrecognized parameter (0) - ignored

unrecognized parameter (wl) - ignored

unrecognized parameter (0) - ignored

unrecognized parameter (lln) - ignored

unrecognized parameter (1) - ignored

unrecognized parameter (wln) - ignored

unrecognized parameter (1) - ignored

unrecognized parameter (lw) - ignored

unrecognized parameter (0) - ignored

unrecognized parameter (ww) - ignored

unrecognized parameter (0) - ignored

unrecognized parameter (lwn) - ignored

unrecognized parameter (1) - ignored

unrecognized parameter (wwn) - ignored

unrecognized parameter (1) - ignored

unrecognized parameter (lwl) - ignored

unrecognized parameter (0) - ignored

unrecognized parameter (wwl) - ignored

unrecognized parameter (0) - ignored

unrecognized parameter (toxref) - ignored

unrecognized parameter (2.35e-009) - ignored

unrecognized parameter (xl) - ignored

unrecognized parameter (-60e-9) - ignored

unrecognized parameter (vth0) - ignored

unrecognized parameter (-0.321) - ignored

unrecognized parameter (k3) - ignored

unrecognized parameter (0) - ignored

unrecognized parameter (k3b) - ignored

unrecognized parameter (0) - ignored

unrecognized parameter (w0) - ignored

unrecognized parameter (2.5e-006) - ignored

unrecognized parameter (dvt0) - ignored

unrecognized parameter (1) - ignored

unrecognized parameter (dvt1) - ignored

unrecognized parameter (2) - ignored

unrecognized parameter (dvt2) - ignored

unrecognized parameter (-0.032) - ignored

unrecognized parameter (dvt0w) - ignored

unrecognized parameter (0) - ignored

unrecognized parameter (dvt1w) - ignored

unrecognized parameter (0) - ignored

unrecognized parameter (dvt2w) - ignored

unrecognized parameter (0) - ignored

unrecognized parameter (dsub) - ignored

unrecognized parameter (0.1) - ignored

unrecognized parameter (minv) - ignored

unrecognized parameter (0.05) - ignored

unrecognized parameter (voffl) - ignored

unrecognized parameter (0) - ignored

unrecognized parameter (dvtp0) - ignored

unrecognized parameter (1e-009) - ignored

unrecognized parameter (dvtp1) - ignored

unrecognized parameter (0.05) - ignored

unrecognized parameter (lpe0) - ignored

unrecognized parameter (0) - ignored

unrecognized parameter (lpeb) - ignored

unrecognized parameter (0) - ignored

unrecognized parameter (xj) - ignored

unrecognized parameter (3.92e-008) - ignored

unrecognized parameter (ngate) - ignored

unrecognized parameter (2e+020) - ignored

unrecognized parameter (ndep) - ignored

unrecognized parameter (1.14e+018) - ignored

unrecognized parameter (nsd) - ignored

unrecognized parameter (2e+020) - ignored

unrecognized parameter (phin) - ignored

unrecognized parameter (0) - ignored

unrecognized parameter (cdsc) - ignored

unrecognized parameter (0.000258) - ignored

unrecognized parameter (cdscb) - ignored

unrecognized parameter (0) - ignored

unrecognized parameter (cdscd) - ignored

unrecognized parameter (6.1e-008) - ignored

unrecognized parameter (cit) - ignored

unrecognized parameter (0) - ignored

unrecognized parameter (voff) - ignored

unrecognized parameter (-0.126) - ignored

unrecognized parameter (nfactor) - ignored

unrecognized parameter (1.5) - ignored

unrecognized parameter (u0) - ignored

unrecognized parameter (0.00835) - ignored

unrecognized parameter (ua) - ignored

unrecognized parameter (2.0e-009) - ignored

unrecognized parameter (ub) - ignored

unrecognized parameter (0.5e-018) - ignored

unrecognized parameter (uc) - ignored

unrecognized parameter (-3e-011) - ignored

unrecognized parameter (vsat) - ignored

unrecognized parameter (70000) - ignored

unrecognized parameter (a0) - ignored

unrecognized parameter (1.0) - ignored

unrecognized parameter (ags) - ignored

unrecognized parameter (1e-020) - ignored

unrecognized parameter (a1) - ignored

unrecognized parameter (0) - ignored

unrecognized parameter (a2) - ignored

unrecognized parameter (1) - ignored

unrecognized parameter (b0) - ignored

unrecognized parameter (-1e-020) - ignored

unrecognized parameter (b1) - ignored

unrecognized parameter (0) - ignored

unrecognized parameter (keta) - ignored

unrecognized parameter (-0.047) - ignored

unrecognized parameter (dwg) - ignored

unrecognized parameter (0) - ignored

unrecognized parameter (dwb) - ignored

unrecognized parameter (0) - ignored

unrecognized parameter (pclm) - ignored

unrecognized parameter (0.12) - ignored

unrecognized parameter (pdiblc1) - ignored

unrecognized parameter (0.001) - ignored

unrecognized parameter (pdiblc2) - ignored

unrecognized parameter (0.001) - ignored

unrecognized parameter (pdiblcb) - ignored

unrecognized parameter (3.4e-008) - ignored

unrecognized parameter (drout) - ignored

unrecognized parameter (0.56) - ignored

unrecognized parameter (pvag) - ignored

unrecognized parameter (1e-020) - ignored

unrecognized parameter (delta) - ignored

unrecognized parameter (0.01) - ignored

unrecognized parameter (pscbe1) - ignored

unrecognized parameter (8.14e+008) - ignored

unrecognized parameter (pscbe2) - ignored

unrecognized parameter (9.58e-007) - ignored

unrecognized parameter (fprout) - ignored

unrecognized parameter (0.2) - ignored

unrecognized parameter (pdits) - ignored

unrecognized parameter (0.08) - ignored

unrecognized parameter (pditsd) - ignored

unrecognized parameter (0.23) - ignored

unrecognized parameter (pditsl) - ignored

unrecognized parameter (2.3e+006) - ignored

unrecognized parameter (rdsw) - ignored

unrecognized parameter (240) - ignored

unrecognized parameter (rsw) - ignored

unrecognized parameter (120) - ignored

unrecognized parameter (rdw) - ignored

unrecognized parameter (120) - ignored

unrecognized parameter (rdswmin) - ignored

unrecognized parameter (0) - ignored

unrecognized parameter (rdwmin) - ignored

unrecognized parameter (0) - ignored

unrecognized parameter (rswmin) - ignored

unrecognized parameter (0) - ignored

unrecognized parameter (prwg) - ignored

unrecognized parameter (3.22e-008) - ignored

unrecognized parameter (prwb) - ignored

unrecognized parameter (6.8e-011) - ignored

unrecognized parameter (wr) - ignored

unrecognized parameter (1) - ignored

unrecognized parameter (alpha0) - ignored

unrecognized parameter (0.074) - ignored

unrecognized parameter (alpha1) - ignored

unrecognized parameter (0.005) - ignored

unrecognized parameter (beta0) - ignored

unrecognized parameter (30) - ignored

unrecognized parameter (agidl) - ignored

unrecognized parameter (0.0002) - ignored

unrecognized parameter (bgidl) - ignored

unrecognized parameter (2.1e+009) - ignored

unrecognized parameter (cgidl) - ignored

unrecognized parameter (0.0002) - ignored

unrecognized parameter (egidl) - ignored

unrecognized parameter (0.8) - ignored

unrecognized parameter (aigbacc) - ignored

unrecognized parameter (0.012) - ignored

unrecognized parameter (bigbacc) - ignored

unrecognized parameter (0.0028) - ignored

unrecognized parameter (cigbacc) - ignored

unrecognized parameter (0.002) - ignored

unrecognized parameter (nigbacc) - ignored

unrecognized parameter (1) - ignored

unrecognized parameter (aigbinv) - ignored

unrecognized parameter (0.014) - ignored

unrecognized parameter (bigbinv) - ignored

unrecognized parameter (0.004) - ignored

unrecognized parameter (cigbinv) - ignored

unrecognized parameter (0.004) - ignored

unrecognized parameter (eigbinv) - ignored

unrecognized parameter (1.1) - ignored

unrecognized parameter (nigbinv) - ignored

unrecognized parameter (3) - ignored

unrecognized parameter (aigc) - ignored

unrecognized parameter (0.69) - ignored

unrecognized parameter (bigc) - ignored

unrecognized parameter (0.0012) - ignored

unrecognized parameter (cigc) - ignored

unrecognized parameter (0.0008) - ignored

unrecognized parameter (aigsd) - ignored

unrecognized parameter (0.0087) - ignored

unrecognized parameter (bigsd) - ignored

unrecognized parameter (0.0012) - ignored

unrecognized parameter (cigsd) - ignored

unrecognized parameter (0.0008) - ignored

unrecognized parameter (nigc) - ignored

unrecognized parameter (1) - ignored

unrecognized parameter (poxedge) - ignored

unrecognized parameter (1) - ignored

unrecognized parameter (pigcd) - ignored

unrecognized parameter (1) - ignored

unrecognized parameter (ntox) - ignored

unrecognized parameter (1) - ignored

unrecognized parameter (xrcrg1) - ignored

unrecognized parameter (12) - ignored

unrecognized parameter (xrcrg2) - ignored

unrecognized parameter (5) - ignored

unrecognized parameter (cgdl) - ignored

unrecognized parameter (2.653e-10) - ignored

unrecognized parameter (cgsl) - ignored

unrecognized parameter (2.653e-10) - ignored

unrecognized parameter (ckappas) - ignored

unrecognized parameter (0.03) - ignored

unrecognized parameter (ckappad) - ignored

unrecognized parameter (0.03) - ignored

unrecognized parameter (acde) - ignored

unrecognized parameter (1) - ignored

unrecognized parameter (moin) - ignored

unrecognized parameter (15) - ignored

unrecognized parameter (noff) - ignored

unrecognized parameter (0.9) - ignored

unrecognized parameter (voffcv) - ignored

unrecognized parameter (0.02) - ignored

unrecognized parameter (kt1) - ignored

unrecognized parameter (-0.11) - ignored

unrecognized parameter (kt1l) - ignored

unrecognized parameter (0) - ignored

unrecognized parameter (kt2) - ignored

unrecognized parameter (0.022) - ignored

unrecognized parameter (ute) - ignored

unrecognized parameter (-1.5) - ignored

unrecognized parameter (ua1) - ignored

unrecognized parameter (4.31e-009) - ignored

unrecognized parameter (ub1) - ignored

unrecognized parameter (7.61e-018) - ignored

unrecognized parameter (uc1) - ignored

unrecognized parameter (-5.6e-011) - ignored

unrecognized parameter (prt) - ignored

unrecognized parameter (0) - ignored

unrecognized parameter (at) - ignored

unrecognized parameter (33000) - ignored

unrecognized parameter (fnoimod) - ignored

unrecognized parameter (1) - ignored

unrecognized parameter (tnoimod) - ignored

unrecognized parameter (0) - ignored

unrecognized parameter (jss) - ignored

unrecognized parameter (0.0001) - ignored

unrecognized parameter (jsws) - ignored

unrecognized parameter (1e-011) - ignored

unrecognized parameter (jswgs) - ignored

unrecognized parameter (1e-010) - ignored

unrecognized parameter (njs) - ignored

unrecognized parameter (1) - ignored

unrecognized parameter (ijthsfwd) - ignored

unrecognized parameter (0.01) - ignored

unrecognized parameter (ijthsrev) - ignored

unrecognized parameter (0.001) - ignored

unrecognized parameter (bvs) - ignored

unrecognized parameter (10) - ignored

unrecognized parameter (xjbvs) - ignored

unrecognized parameter (1) - ignored

unrecognized parameter (jsd) - ignored

unrecognized parameter (0.0001) - ignored

unrecognized parameter (jswd) - ignored

unrecognized parameter (1e-011) - ignored

unrecognized parameter (jswgd) - ignored

unrecognized parameter (1e-010) - ignored

unrecognized parameter (njd) - ignored

unrecognized parameter (1) - ignored

unrecognized parameter (ijthdfwd) - ignored

unrecognized parameter (0.01) - ignored

unrecognized parameter (ijthdrev) - ignored

unrecognized parameter (0.001) - ignored

unrecognized parameter (bvd) - ignored

unrecognized parameter (10) - ignored

unrecognized parameter (xjbvd) - ignored

unrecognized parameter (1) - ignored

unrecognized parameter (pbs) - ignored

unrecognized parameter (1) - ignored

unrecognized parameter (cjs) - ignored

unrecognized parameter (0.0005) - ignored

unrecognized parameter (mjs) - ignored

unrecognized parameter (0.5) - ignored

unrecognized parameter (pbsws) - ignored

unrecognized parameter (1) - ignored

unrecognized parameter (cjsws) - ignored

unrecognized parameter (5e-010) - ignored

unrecognized parameter (mjsws) - ignored

unrecognized parameter (0.33) - ignored

unrecognized parameter (pbswgs) - ignored

unrecognized parameter (1) - ignored

unrecognized parameter (cjswgs) - ignored

unrecognized parameter (3e-010) - ignored

unrecognized parameter (mjswgs) - ignored

unrecognized parameter (0.33) - ignored

unrecognized parameter (pbd) - ignored

unrecognized parameter (1) - ignored

unrecognized parameter (cjd) - ignored

unrecognized parameter (0.0005) - ignored

unrecognized parameter (mjd) - ignored

unrecognized parameter (0.5) - ignored

unrecognized parameter (pbswd) - ignored

unrecognized parameter (1) - ignored

unrecognized parameter (cjswd) - ignored

unrecognized parameter (5e-010) - ignored

unrecognized parameter (mjswd) - ignored

unrecognized parameter (0.33) - ignored

unrecognized parameter (pbswgd) - ignored

unrecognized parameter (1) - ignored

unrecognized parameter (cjswgd) - ignored

unrecognized parameter (5e-010) - ignored

unrecognized parameter (mjswgd) - ignored

unrecognized parameter (0.33) - ignored

unrecognized parameter (tpb) - ignored

unrecognized parameter (0.005) - ignored

unrecognized parameter (tcj) - ignored

unrecognized parameter (0.001) - ignored

unrecognized parameter (tpbsw) - ignored

unrecognized parameter (0.005) - ignored

unrecognized parameter (tcjsw) - ignored

unrecognized parameter (0.001) - ignored

unrecognized parameter (tpbswg) - ignored

unrecognized parameter (0.005) - ignored

unrecognized parameter (tcjswg) - ignored

unrCircuit: * Pixel sensor testbench

Error on line 37 : .model  nmos  nmos  level = 54 version = 4.5.0          binunit = 1            paramchk= 1            mobmod  = 0 capmod  = 2            igcmod  = 1            igbmod  = 1            geomod  = 1 diomod  = 1            rdsmod  = 0            rbodymod= 1            rgatemod= 1 permod  = 1            acnqsmod= 0            trnqsmod= 0 tnom    = 27           toxe    = 2.25e-9      toxp    = 1.6e-9       toxm    = 2.25e-9 dtox    = 0.65e-9      epsrox  = 3.9          wint    = 5e-009       lint    = 10.5e-009 ll      = 0            wl      = 0            lln     = 1            wln     = 1 lw      = 0            ww      = 0            lwn     = 1            wwn     = 1 lwl     = 0            wwl     = 0            xpart   = 0            toxref  = 2.25e-9 xl      = -60e-9 vth0    = 0.3782       k1      = 0.4          k2      = 0.01         k3      = 0 k3b     = 0            w0      = 2.5e-006     dvt0    = 1            dvt1    = 2 dvt2    = -0.032       dvt0w   = 0            dvt1w   = 0            dvt2w   = 0 dsub    = 0.1          minv    = 0.05         voffl   = 0            dvtp0   = 1.2e-010 dvtp1   = 0.1          lpe0    = 0            lpeb    = 0            xj      = 3.92e-008 ngate   = 2e+020       ndep    = 1.54e+018    nsd     = 2e+020       phin    = 0 cdsc    = 0.0002       cdscb   = 0            cdscd   = 0            cit     = 0 voff    = -0.13        nfactor = 1.5          eta0    = 0.0092       etab    = 0 vfb     = -0.55        u0      = 0.05928      ua      = 6e-010       ub      = 1.2e-018 uc      = 0            vsat    = 100370       a0      = 1            ags     = 1e-020 a1      = 0            a2      = 1            b0      = 0            b1      = 0 keta    = 0.04         dwg     = 0            dwb     = 0            pclm    = 0.06 pdiblc1 = 0.001        pdiblc2 = 0.001        pdiblcb = -0.005       drout   = 0.5 pvag    = 1e-020       delta   = 0.01         pscbe1  = 8.14e+008    pscbe2  = 1e-007 fprout  = 0.2          pdits   = 0.08         pditsd  = 0.23         pditsl  = 2.3e+006 rsh     = 5            rdsw    = 200          rsw     = 100          rdw     = 100 rdswmin = 0            rdwmin  = 0            rswmin  = 0            prwg    = 0 prwb    = 6.8e-011     wr      = 1            alpha0  = 0.074        alpha1  = 0.005 beta0   = 30           agidl   = 0.0002       bgidl   = 2.1e+009     cgidl   = 0.0002 egidl   = 0.8 aigbacc = 0.012        bigbacc = 0.0028       cigbacc = 0.002 nigbacc = 1            aigbinv = 0.014        bigbinv = 0.004        cigbinv = 0.004 eigbinv = 1.1          nigbinv = 3            aigc    = 0.012        bigc    = 0.0028 cigc    = 0.002        aigsd   = 0.012        bigsd   = 0.0028       cigsd   = 0.002 nigc    = 1            poxedge = 1            pigcd   = 1            ntox    = 1 xrcrg1  = 12           xrcrg2  = 5 cgso    = 2.4e-010     cgdo    = 2.4e-010     cgbo    = 2.56e-011    cgdl    = 2.653e-10 cgsl    = 2.653e-10    ckappas = 0.03         ckappad = 0.03         acde    = 1 moin    = 15           noff    = 0.9          voffcv  = 0.02 kt1     = -0.11        kt1l    = 0            kt2     = 0.022        ute     = -1.5 ua1     = 4.31e-009    ub1     = 7.61e-018    uc1     = -5.6e-011    prt     = 0 at      = 33000 fnoimod = 1            tnoimod = 0 jss     = 0.0001       jsws    = 1e-011       jswgs   = 1e-010       njs     = 1 ijthsfwd= 0.01         ijthsrev= 0.001        bvs     = 10           xjbvs   = 1 jsd     = 0.0001       jswd    = 1e-011       jswgd   = 1e-010       njd     = 1 ijthdfwd= 0.01         ijthdrev= 0.001        bvd     = 10           xjbvd   = 1 pbs     = 1            cjs     = 0.0005       mjs     = 0.5          pbsws   = 1 cjsws   = 5e-010       mjsws   = 0.33         pbswgs  = 1            cjswgs  = 3e-010 mjswgs  = 0.33         pbd     = 1            cjd     = 0.0005       mjd     = 0.5 pbswd   = 1            cjswd   = 5e-010       mjswd   = 0.33         pbswgd  = 1 cjswgd  = 5e-010       mjswgd  = 0.33         tpb     = 0.005        tcj     = 0.001 tpbsw   = 0.005        tcjsw   = 0.001        tpbswg  = 0.005        tcjswg  = 0.001 xtis    = 3            xtid    = 3 dmcg    = 0e-006       dmci    = 0e-006       dmdg    = 0e-006       dmcgt   = 0e-007 dwj     = 0.0e-008     xgw     = 0e-007       xgl     = 0e-008 rshg    = 0.4          gbmin   = 1e-010       rbpb    = 5            rbpd    = 15 rbps    = 15           rbdb    = 15           rbsb    = 15           ngcon   = 1
unrecognized parameter (version) - ignored

unrecognized parameter (4.5.0) - ignored

unrecognized parameter (binunit) - ignored

unrecognized parameter (1) - ignored

unrecognized parameter (paramchk) - ignored

unrecognized parameter (1) - ignored

unrecognized parameter (mobmod) - ignored

unrecognized parameter (0) - ignored

unrecognized parameter (capmod) - ignored

unrecognized parameter (2) - ignored

unrecognized parameter (igcmod) - ignored

unrecognized parameter (1) - ignored

unrecognized parameter (igbmod) - ignored

unrecognized parameter (1) - ignored

unrecognized parameter (geomod) - ignored

unrecognized parameter (1) - ignored

unrecognized parameter (diomod) - ignored

unrecognized parameter (1) - ignored

unrecognized parameter (rdsmod) - ignored

unrecognized parameter (0) - ignored

unrecognized parameter (rbodymod) - ignored

unrecognized parameter (1) - ignored

unrecognized parameter (rgatemod) - ignored

unrecognized parameter (1) - ignored

unrecognized parameter (permod) - ignored

unrecognized parameter (1) - ignored

unrecognized parameter (acnqsmod) - ignored

unrecognized parameter (0) - ignored

unrecognized parameter (trnqsmod) - ignored

unrecognized parameter (0) - ignored

unrecognized parameter (tnom) - ignored

unrecognized parameter (27) - ignored

unrecognized parameter (toxe) - ignored

unrecognized parameter (2.25e-9) - ignored

unrecognized parameter (toxp) - ignored

unrecognized parameter (1.6e-9) - ignored

unrecognized parameter (toxm) - ignored

unrecognized parameter (2.25e-9) - ignored

unrecognized parameter (dtox) - ignored

unrecognized parameter (0.65e-9) - ignored

unrecognized parameter (epsrox) - ignored

unrecognized parameter (3.9) - ignored

unrecognized parameter (wint) - ignored

unrecognized parameter (5e-009) - ignored

unrecognized parameter (lint) - ignored

unrecognized parameter (10.5e-009) - ignored

unrecognized parameter (ll) - ignored

unrecognized parameter (0) - ignored

unrecognized parameter (wl) - ignored

unrecognized parameter (0) - ignored

unrecognized parameter (lln) - ignored

unrecognized parameter (1) - ignored

unrecognized parameter (wln) - ignored

unrecognized parameter (1) - ignored

unrecognized parameter (lw) - ignored

unrecognized parameter (0) - ignored

unrecognized parameter (ww) - ignored

unrecognized parameter (0) - ignored

unrecognized parameter (lwn) - ignored

unrecognized parameter (1) - ignored

unrecognized parameter (wwn) - ignored

unrecognized parameter (1) - ignored

unrecognized parameter (lwl) - ignored

unrecognized parameter (0) - ignored

unrecognized parameter (wwl) - ignored

unrecognized parameter (0) - ignored

unrecognized parameter (toxref) - ignored

unrecognized parameter (2.25e-9) - ignored

unrecognized parameter (xl) - ignored

unrecognized parameter (-60e-9) - ignored

unrecognized parameter (vth0) - ignored

unrecognized parameter (0.3782) - ignored

unrecognized parameter (k3) - ignored

unrecognized parameter (0) - ignored

unrecognized parameter (k3b) - ignored

unrecognized parameter (0) - ignored

unrecognized parameter (w0) - ignored

unrecognized parameter (2.5e-006) - ignored

unrecognized parameter (dvt0) - ignored

unrecognized parameter (1) - ignored

unrecognized parameter (dvt1) - ignored

unrecognized parameter (2) - ignored

unrecognized parameter (dvt2) - ignored

unrecognized parameter (-0.032) - ignored

unrecognized parameter (dvt0w) - ignored

unrecognized parameter (0) - ignored

unrecognized parameter (dvt1w) - ignored

unrecognized parameter (0) - ignored

unrecognized parameter (dvt2w) - ignored

unrecognized parameter (0) - ignored

unrecognized parameter (dsub) - ignored

unrecognized parameter (0.1) - ignored

unrecognized parameter (minv) - ignored

unrecognized parameter (0.05) - ignored

unrecognized parameter (voffl) - ignored

unrecognized parameter (0) - ignored

unrecognized parameter (dvtp0) - ignored

unrecognized parameter (1.2e-010) - ignored

unrecognized parameter (dvtp1) - ignored

unrecognized parameter (0.1) - ignored

unrecognized parameter (lpe0) - ignored

unrecognized parameter (0) - ignored

unrecognized parameter (lpeb) - ignored

unrecognized parameter (0) - ignored

unrecognized parameter (xj) - ignored

unrecognized parameter (3.92e-008) - ignored

unrecognized parameter (ngate) - ignored

unrecognized parameter (2e+020) - ignored

unrecognized parameter (ndep) - ignored

unrecognized parameter (1.54e+018) - ignored

unrecognized parameter (nsd) - ignored

unrecognized parameter (2e+020) - ignored

unrecognized parameter (phin) - ignored

unrecognized parameter (0) - ignored

unrecognized parameter (cdsc) - ignored

unrecognized parameter (0.0002) - ignored

unrecognized parameter (cdscb) - ignored

unrecognized parameter (0) - ignored

unrecognized parameter (cdscd) - ignored

unrecognized parameter (0) - ignored

unrecognized parameter (cit) - ignored

unrecognized parameter (0) - ignored

unrecognized parameter (voff) - ignored

unrecognized parameter (-0.13) - ignored

unrecognized parameter (nfactor) - ignored

unrecognized parameter (1.5) - ignored

unrecognized parameter (u0) - ignored

unrecognized parameter (0.05928) - ignored

unrecognized parameter (ua) - ignored

unrecognized parameter (6e-010) - ignored

unrecognized parameter (ub) - ignored

unrecognized parameter (1.2e-018) - ignored

unrecognized parameter (uc) - ignored

unrecognized parameter (0) - ignored

unrecognized parameter (vsat) - ignored

unrecognized parameter (100370) - ignored

unrecognized parameter (a0) - ignored

unrecognized parameter (1) - ignored

unrecognized parameter (ags) - ignored

unrecognized parameter (1e-020) - ignored

unrecognized parameter (a1) - ignored

unrecognized parameter (0) - ignored

unrecognized parameter (a2) - ignored

unrecognized parameter (1) - ignored

unrecognized parameter (b0) - ignored

unrecognized parameter (0) - ignored

unrecognized parameter (b1) - ignored

unrecognized parameter (0) - ignored

unrecognized parameter (keta) - ignored

unrecognized parameter (0.04) - ignored

unrecognized parameter (dwg) - ignored

unrecognized parameter (0) - ignored

unrecognized parameter (dwb) - ignored

unrecognized parameter (0) - ignored

unrecognized parameter (pclm) - ignored

unrecognized parameter (0.06) - ignored

unrecognized parameter (pdiblc1) - ignored

unrecognized parameter (0.001) - ignored

unrecognized parameter (pdiblc2) - ignored

unrecognized parameter (0.001) - ignored

unrecognized parameter (pdiblcb) - ignored

unrecognized parameter (-0.005) - ignored

unrecognized parameter (drout) - ignored

unrecognized parameter (0.5) - ignored

unrecognized parameter (pvag) - ignored

unrecognized parameter (1e-020) - ignored

unrecognized parameter (delta) - ignored

unrecognized parameter (0.01) - ignored

unrecognized parameter (pscbe1) - ignored

unrecognized parameter (8.14e+008) - ignored

unrecognized parameter (pscbe2) - ignored

unrecognized parameter (1e-007) - ignored

unrecognized parameter (fprout) - ignored

unrecognized parameter (0.2) - ignored

unrecognized parameter (pdits) - ignored

unrecognized parameter (0.08) - ignored

unrecognized parameter (pditsd) - ignored

unrecognized parameter (0.23) - ignored

unrecognized parameter (pditsl) - ignored

unrecognized parameter (2.3e+006) - ignored

unrecognized parameter (rdsw) - ignored

unrecognized parameter (200) - ignored

unrecognized parameter (rsw) - ignored

unrecognized parameter (100) - ignored

unrecognized parameter (rdw) - ignored

unrecognized parameter (100) - ignored

unrecognized parameter (rdswmin) - ignored

unrecognized parameter (0) - ignored

unrecognized parameter (rdwmin) - ignored

unrecognized parameter (0) - ignored

unrecognized parameter (rswmin) - ignored

unrecognized parameter (0) - ignored

unrecognized parameter (prwg) - ignored

unrecognized parameter (0) - ignored

unrecognized parameter (prwb) - ignored

unrecognized parameter (6.8e-011) - ignored

unrecognized parameter (wr) - ignored

unrecognized parameter (1) - ignored

unrecognized parameter (alpha0) - ignored

unrecognized parameter (0.074) - ignored

unrecognized parameter (alpha1) - ignored

unrecognized parameter (0.005) - ignored

unrecognized parameter (beta0) - ignored

unrecognized parameter (30) - ignored

unrecognized parameter (agidl) - ignored

unrecognized parameter (0.0002) - ignored

unrecognized parameter (bgidl) - ignored

unrecognized parameter (2.1e+009) - ignored

unrecognized parameter (cgidl) - ignored

unrecognized parameter (0.0002) - ignored

unrecognized parameter (egidl) - ignored

unrecognized parameter (0.8) - ignored

unrecognized parameter (aigbacc) - ignored

unrecognized parameter (0.012) - ignored

unrecognized parameter (bigbacc) - ignored

unrecognized parameter (0.0028) - ignored

unrecognized parameter (cigbacc) - ignored

unrecognized parameter (0.002) - ignored

unrecognized parameter (nigbacc) - ignored

unrecognized parameter (1) - ignored

unrecognized parameter (aigbinv) - ignored

unrecognized parameter (0.014) - ignored

unrecognized parameter (bigbinv) - ignored

unrecognized parameter (0.004) - ignored

unrecognized parameter (cigbinv) - ignored

unrecognized parameter (0.004) - ignored

unrecognized parameter (eigbinv) - ignored

unrecognized parameter (1.1) - ignored

unrecognized parameter (nigbinv) - ignored

unrecognized parameter (3) - ignored

unrecognized parameter (aigc) - ignored

unrecognized parameter (0.012) - ignored

unrecognized parameter (bigc) - ignored

unrecognized parameter (0.0028) - ignored

unrecognized parameter (cigc) - ignored

unrecognized parameter (0.002) - ignored

unrecognized parameter (aigsd) - ignored

unrecognized parameter (0.012) - ignored

unrecognized parameter (bigsd) - ignored

unrecognized parameter (0.0028) - ignored

unrecognized parameter (cigsd) - ignored

unrecognized parameter (0.002) - ignored

unrecognized parameter (nigc) - ignored

unrecognized parameter (1) - ignored

unrecognized parameter (poxedge) - ignored

unrecognized parameter (1) - ignored

unrecognized parameter (pigcd) - ignored

unrecognized parameter (1) - ignored

unrecognized parameter (ntox) - ignored

unrecognized parameter (1) - ignored

unrecognized parameter (xrcrg1) - ignored

unrecognized parameter (12) - ignored

unrecognized parameter (xrcrg2) - ignored

unrecognized parameter (5) - ignored

unrecognized parameter (cgdl) - ignored

unrecognized parameter (2.653e-10) - ignored

unrecognized parameter (cgsl) - ignored

unrecognized parameter (2.653e-10) - ignored

unrecognized parameter (ckappas) - ignored

unrecognized parameter (0.03) - ignored

unrecognized parameter (ckappad) - ignored

unrecognized parameter (0.03) - ignored

unrecognized parameter (acde) - ignored

unrecognized parameter (1) - ignored

unrecognized parameter (moin) - ignored

unrecognized parameter (15) - ignored

unrecognized parameter (noff) - ignored

unrecognized parameter (0.9) - ignored

unrecognized parameter (voffcv) - ignored

unrecognized parameter (0.02) - ignored

unrecognized parameter (kt1) - ignored

unrecognized parameter (-0.11) - ignored

unrecognized parameter (kt1l) - ignored

unrecognized parameter (0) - ignored

unrecognized parameter (kt2) - ignored

unrecognized parameter (0.022) - ignored

unrecognized parameter (ute) - ignored

unrecognized parameter (-1.5) - ignored

unrecognized parameter (ua1) - ignored

unrecognized parameter (4.31e-009) - ignored

unrecognized parameter (ub1) - ignored

unrecognized parameter (7.61e-018) - ignored

unrecognized parameter (uc1) - ignored

unrecognized parameter (-5.6e-011) - ignored

unrecognized parameter (prt) - ignored

unrecognized parameter (0) - ignored

unrecognized parameter (at) - ignored

unrecognized parameter (33000) - ignored

unrecognized parameter (fnoimod) - ignored

unrecognized parameter (1) - ignored

unrecognized parameter (tnoimod) - ignored

unrecognized parameter (0) - ignored

unrecognized parameter (jss) - ignored

unrecognized parameter (0.0001) - ignored

unrecognized parameter (jsws) - ignored

unrecognized parameter (1e-011) - ignored

unrecognized parameter (jswgs) - ignored

unrecognized parameter (1e-010) - ignored

unrecognized parameter (njs) - ignored

unrecognized parameter (1) - ignored

unrecognized parameter (ijthsfwd) - ignored

unrecognized parameter (0.01) - ignored

unrecognized parameter (ijthsrev) - ignored

unrecognized parameter (0.001) - ignored

unrecognized parameter (bvs) - ignored

unrecognized parameter (10) - ignored

unrecognized parameter (xjbvs) - ignored

unrecognized parameter (1) - ignored

unrecognized parameter (jsd) - ignored

unrecognized parameter (0.0001) - ignored

unrecognized parameter (jswd) - ignored

unrecognized parameter (1e-011) - ignored

unrecognized parameter (jswgd) - ignored

unrecognized parameter (1e-010) - ignored

unrecognized parameter (njd) - ignored

unrecognized parameter (1) - ignored

unrecognized parameter (ijthdfwd) - ignored

unrecognized parameter (0.01) - ignored

unrecognized parameter (ijthdrev) - ignored

unrecognized parameter (0.001) - ignored

unrecognized parameter (bvd) - ignored

unrecognized parameter (10) - ignored

unrecognized parameter (xjbvd) - ignored

unrecognized parameter (1) - ignored

unrecognized parameter (pbs) - ignored

unrecognized parameter (1) - ignored

unrecognized parameter (cjs) - ignored

unrecognized parameter (0.0005) - ignored

unrecognized parameter (mjs) - ignored

unrecognized parameter (0.5) - ignored

unrecognized parameter (pbsws) - ignored

unrecognized parameter (1) - ignored

unrecognized parameter (cjsws) - ignored

unrecognized parameter (5e-010) - ignored

unrecognized parameter (mjsws) - ignored

unrecognized parameter (0.33) - ignored

unrecognized parameter (pbswgs) - ignored

unrecognized parameter (1) - ignored

unrecognized parameter (cjswgs) - ignored

unrecognized parameter (3e-010) - ignored

unrecognized parameter (mjswgs) - ignored

unrecognized parameter (0.33) - ignored

unrecognized parameter (pbd) - ignored

unrecognized parameter (1) - ignored

unrecognized parameter (cjd) - ignored

unrecognized parameter (0.0005) - ignored

unrecognized parameter (mjd) - ignored

unrecognized parameter (0.5) - ignored

unrecognized parameter (pbswd) - ignored

unrecognized parameter (1) - ignored

unrecognized parameter (cjswd) - ignored

unrecognized parameter (5e-010) - ignored

unrecognized parameter (mjswd) - ignored

unrecognized parameter (0.33) - ignored

unrecognized parameter (pbswgd) - ignored

unrecognized parameter (1) - ignored

unrecognized parameter (cjswgd) - ignored

unrecognized parameter (5e-010) - ignored

unrecognized parameter (mjswgd) - ignored

unrecognized parameter (0.33) - ignored

unrecognized parameter (tpb) - ignored

unrecognized parameter (0.005) - ignored

unrecognized parameter (tcj) - ignored

unrecognized parameter (0.001) - ignored

unrecognized parameter (tpbsw) - ignored

unrecognized parameter (0.005) - ignored

unrecognized parameter (tcjsw) - ignored

unrecognized parameter (0.001) - ignored

unrecognized parameter (tpbswg) - ignored

unrecognized parameter (0.005) - ignored

unrecognized parameter (tcjswg) - ignored

unrecognized parameter (0.001) - ignored

unrecognized parameter (xtis) - ignored

unrecognized parameter (3) - ignored

unrecognized parameter (xtid) - ignored

unrecognized parameter (3) - ignored

unrecognized parameter (dmcg) - ignored

unrecognized parameter (0e-006) - ignored

unrecognized parameter (dmci) - ignored

unrecognized parameter (0e-006) - ignored

unrecognized parameter (dmdg) - ignored

unrecognized parameter (0e-006) - ignored

unrecognized parameter (dmcgt) - ignored

unrecognized parameter (0e-007) - ignored

unrecognized parameter (dwj) - ignored

unrecognized parameter (0.0e-008) - ignored

unrecognized parameter (xgw) - ignored

unrecognized parameter (0e-007) - ignored

unrecognized parameter (xgl) - ignored

unrecognized parameter (0e-008) - ignored

unrecognized parameter (rshg) - ignored

unrecognized parameter (0.4) - ignored

unrecognized parameter (gbmin) - ignored

unrecognized parameter (1e-010) - ignored

unrecognized parameter (rbpb) - ignored

unrecognized parameter (5) - ignored

unrecognized parameter (rbpd) - ignored

unrecognized parameter (15) - ignored

unrecognized parameter (rbps) - ignored

unrecognized parameter (15) - ignored

unrecognized parameter (rbdb) - ignored

unrecognized parameter (15) - ignored

unrecognized parameter (rbsb) - ignored

unrecognized parameter (15) - ignored

unrecognized parameter (ngcon) - ignored

unrecognized parameter (1) - ignored

Error on line 49 : .model  pmos  pmos  level = 54 version = 4.5.0          binunit = 1            paramchk= 1            mobmod  = 0 capmod  = 2            igcmod  = 1            igbmod  = 1            geomod  = 1 diomod  = 1            rdsmod  = 0            rbodymod= 1            rgatemod= 1 permod  = 1            acnqsmod= 0            trnqsmod= 0 tnom    = 27           toxe    = 2.35e-009    toxp    = 1.6e-009     toxm    = 2.35e-009 dtox    = 0.75e-9      epsrox  = 3.9          wint    = 5e-009       lint    = 10.5e-009 ll      = 0            wl      = 0            lln     = 1            wln     = 1 lw      = 0            ww      = 0            lwn     = 1            wwn     = 1 lwl     = 0            wwl     = 0            xpart   = 0            toxref  = 2.35e-009 xl      = -60e-9 vth0    = -0.321       k1      = 0.4          k2      = -0.01        k3      = 0 k3b     = 0            w0      = 2.5e-006     dvt0    = 1            dvt1    = 2 dvt2    = -0.032       dvt0w   = 0            dvt1w   = 0            dvt2w   = 0 dsub    = 0.1          minv    = 0.05         voffl   = 0            dvtp0   = 1e-009 dvtp1   = 0.05         lpe0    = 0            lpeb    = 0            xj      = 3.92e-008 ngate   = 2e+020       ndep    = 1.14e+018    nsd     = 2e+020       phin    = 0 cdsc    = 0.000258     cdscb   = 0            cdscd   = 6.1e-008     cit     = 0 voff    = -0.126       nfactor = 1.5          eta0    = 0.0092       etab    = 0 vfb     = 0.55         u0      = 0.00835      ua      = 2.0e-009     ub      = 0.5e-018 uc      = -3e-011      vsat    = 70000        a0      = 1.0          ags     = 1e-020 a1      = 0            a2      = 1            b0      = -1e-020      b1      = 0 keta    = -0.047       dwg     = 0            dwb     = 0            pclm    = 0.12 pdiblc1 = 0.001        pdiblc2 = 0.001        pdiblcb = 3.4e-008     drout   = 0.56 pvag    = 1e-020       delta   = 0.01         pscbe1  = 8.14e+008    pscbe2  = 9.58e-007 fprout  = 0.2          pdits   = 0.08         pditsd  = 0.23         pditsl  = 2.3e+006 rsh     = 5            rdsw    = 240          rsw     = 120          rdw     = 120 rdswmin = 0            rdwmin  = 0            rswmin  = 0            prwg    = 3.22e-008 prwb    = 6.8e-011     wr      = 1            alpha0  = 0.074        alpha1  = 0.005 beta0   = 30           agidl   = 0.0002       bgidl   = 2.1e+009     cgidl   = 0.0002 egidl   = 0.8 aigbacc = 0.012        bigbacc = 0.0028       cigbacc = 0.002 nigbacc = 1            aigbinv = 0.014        bigbinv = 0.004        cigbinv = 0.004 eigbinv = 1.1          nigbinv = 3            aigc    = 0.69         bigc    = 0.0012 cigc    = 0.0008       aigsd   = 0.0087       bigsd   = 0.0012       cigsd   = 0.0008 nigc    = 1            poxedge = 1            pigcd   = 1            ntox    = 1 xrcrg1  = 12           xrcrg2  = 5 cgso    = 2.4e-010     cgdo    = 2.4e-010     cgbo    = 2.56e-011    cgdl    = 2.653e-10 cgsl    = 2.653e-10    ckappas = 0.03         ckappad = 0.03         acde    = 1 moin    = 15           noff    = 0.9          voffcv  = 0.02 kt1     = -0.11        kt1l    = 0            kt2     = 0.022        ute     = -1.5 ua1     = 4.31e-009    ub1     = 7.61e-018    uc1     = -5.6e-011    prt     = 0 at      = 33000 fnoimod = 1            tnoimod = 0 jss     = 0.0001       jsws    = 1e-011       jswgs   = 1e-010       njs     = 1 ijthsfwd= 0.01         ijthsrev= 0.001        bvs     = 10           xjbvs   = 1 jsd     = 0.0001       jswd    = 1e-011       jswgd   = 1e-010       njd     = 1 ijthdfwd= 0.01         ijthdrev= 0.001        bvd     = 10           xjbvd   = 1 pbs     = 1            cjs     = 0.0005       mjs     = 0.5          pbsws   = 1 cjsws   = 5e-010       mjsws   = 0.33         pbswgs  = 1            cjswgs  = 3e-010 mjswgs  = 0.33         pbd     = 1            cjd     = 0.0005       mjd     = 0.5 pbswd   = 1            cjswd   = 5e-010       mjswd   = 0.33         pbswgd  = 1 cjswgd  = 5e-010       mjswgd  = 0.33         tpb     = 0.005        tcj     = 0.001 tpbsw   = 0.005        tcjsw   = 0.001        tpbswg  = 0.005        tcjswg  = 0.001 xtis    = 3            xtid    = 3 dmcg    = 0e-006       dmci    = 0e-006       dmdg    = 0e-006       dmcgt   = 0e-007 dwj     = 0.0e-008     xgw     = 0e-007       xgl     = 0e-008 rshg    = 0.4          gbmin   = 1e-010       rbpb    = 5            rbpd    = 15 rbps    = 15           rbdb    = 15           rbsb    = 15           ngcon   = 1
unrecognized parameter (version) - ignored

unrecognized parameter (4.5.0) - ignored

unrecognized parameter (binunit) - ignored

unrecognized parameter (1) - ignored

unrecognized parameter (paramchk) - ignored

unrecognized parameter (1) - ignored

unrecognized parameter (mobmod) - ignored

unrecognized parameter (0) - ignored

unrecognized parameter (capmod) - ignored

unrecognized parameter (2) - ignored

unrecognized parameter (igcmod) - ignored

unrecognized parameter (1) - ignored

unrecognized parameter (igbmod) - ignored

unrecognized parameter (1) - ignored

unrecognized parameter (geomod) - ignored

unrecognized parameter (1) - ignored

unrecognized parameter (diomod) - ignored

unrecognized parameter (1) - ignored

unrecognized parameter (rdsmod) - ignored

unrecognized parameter (0) - ignored

unrecognized parameter (rbodymod) - ignored

unrecognized parameter (1) - ignored

unrecognized parameter (rgatemod) - ignored

unrecognized parameter (1) - ignored

unrecognized parameter (permod) - ignored

unrecognized parameter (1) - ignored

unrecognized parameter (acnqsmod) - ignored

unrecognized parameter (0) - ignored

unrecognized parameter (trnqsmod) - ignored

unrecognized parameter (0) - ignored

unrecognized parameter (tnom) - ignored

unrecognized parameter (27) - ignored

unrecognized parameter (toxe) - ignored

unrecognized parameter (2.35e-009) - ignored

unrecognized parameter (toxp) - ignored

unrecognized parameter (1.6e-009) - ignored

unrecognized parameter (toxm) - ignored

unrecognized parameter (2.35e-009) - ignored

unrecognized parameter (dtox) - ignored

unrecognized parameter (0.75e-9) - ignored

unrecognized parameter (epsrox) - ignored

unrecognized parameter (3.9) - ignored

unrecognized parameter (wint) - ignored

unrecognized parameter (5e-009) - ignored

unrecognized parameter (lint) - ignored

unrecognized parameter (10.5e-009) - ignored

unrecognized parameter (ll) - ignored

unrecognized parameter (0) - ignored

unrecognized parameter (wl) - ignored

unrecognized parameter (0) - ignored

unrecognized parameter (lln) - ignored

unrecognized parameter (1) - ignored

unrecognized parameter (wln) - ignored

unrecognized parameter (1) - ignored

unrecognized parameter (lw) - ignored

unrecognized parameter (0) - ignored

unrecognized parameter (ww) - ignored

unrecognized parameter (0) - ignored

unrecognized parameter (lwn) - ignored

unrecognized parameter (1) - ignored

unrecognized parameter (wwn) - ignored

unrecognized parameter (1) - ignored

unrecognized parameter (lwl) - ignored

unrecognized parameter (0) - ignored

unrecognized parameter (wwl) - ignored

unrecognized parameter (0) - ignored

unrecognized parameter (toxref) - ignored

unrecognized parameter (2.35e-009) - ignored

unrecognized parameter (xl) - ignored

unrecognized parameter (-60e-9) - ignored

unrecognized parameter (vth0) - ignored

unrecognized parameter (-0.321) - ignored

unrecognized parameter (k3) - ignored

unrecognized parameter (0) - ignored

unrecognized parameter (k3b) - ignored

unrecognized parameter (0) - ignored

unrecognized parameter (w0) - ignored

unrecognized parameter (2.5e-006) - ignored

unrecognized parameter (dvt0) - ignored

unrecognized parameter (1) - ignored

unrecognized parameter (dvt1) - ignored

unrecognized parameter (2) - ignored

unrecognized parameter (dvt2) - ignored

unrecognized parameter (-0.032) - ignored

unrecognized parameter (dvt0w) - ignored

unrecognized parameter (0) - ignored

unrecognized parameter (dvt1w) - ignored

unrecognized parameter (0) - ignored

unrecognized parameter (dvt2w) - ignored

unrecognized parameter (0) - ignored

unrecognized parameter (dsub) - ignored

unrecognized parameter (0.1) - ignored

unrecognized parameter (minv) - ignored

unrecognized parameter (0.05) - ignored

unrecognized parameter (voffl) - ignored

unrecognized parameter (0) - ignored

unrecognized parameter (dvtp0) - ignored

unrecognized parameter (1e-009) - ignored

unrecognized parameter (dvtp1) - ignored

unrecognized parameter (0.05) - ignored

unrecognized parameter (lpe0) - ignored

unrecognized parameter (0) - ignored

unrecognized parameter (lpeb) - ignored

unrecognized parameter (0) - ignored

unrecognized parameter (xj) - ignored

unrecognized parameter (3.92e-008) - ignored

unrecognized parameter (ngate) - ignored

unrecognized parameter (2e+020) - ignored

unrecognized parameter (ndep) - ignored

unrecognized parameter (1.14e+018) - ignored

unrecognized parameter (nsd) - ignored

unrecognized parameter (2e+020) - ignored

unrecognized parameter (phin) - ignored

unrecognized parameter (0) - ignored

unrecognized parameter (cdsc) - ignored

unrecognized parameter (0.000258) - ignored

unrecognized parameter (cdscb) - ignored

unrecognized parameter (0) - ignored

unrecognized parameter (cdscd) - ignored

unrecognized parameter (6.1e-008) - ignored

unrecognized parameter (cit) - ignored

unrecognized parameter (0) - ignored

unrecognized parameter (voff) - ignored

unrecognized parameter (-0.126) - ignored

unrecognized parameter (nfactor) - ignored

unrecognized parameter (1.5) - ignored

unrecognized parameter (u0) - ignored

unrecognized parameter (0.00835) - ignored

unrecognized parameter (ua) - ignored

unrecognized parameter (2.0e-009) - ignored

unrecognized parameter (ub) - ignored

unrecognized parameter (0.5e-018) - ignored

unrecognized parameter (uc) - ignored

unrecognized parameter (-3e-011) - ignored

unrecognized parameter (vsat) - ignored

unrecognized parameter (70000) - ignored

unrecognized parameter (a0) - ignored

unrecognized parameter (1.0) - ignored

unrecognized parameter (ags) - ignored

unrecognized parameter (1e-020) - ignored

unrecognized parameter (a1) - ignored

unrecognized parameter (0) - ignored

unrecognized parameter (a2) - ignored

unrecognized parameter (1) - ignored

unrecognized parameter (b0) - ignored

unrecognized parameter (-1e-020) - ignored

unrecognized parameter (b1) - ignored

unrecognized parameter (0) - ignored

unrecognized parameter (keta) - ignored

unrecognized parameter (-0.047) - ignored

unrecognized parameter (dwg) - ignored

unrecognized parameter (0) - ignored

unrecognized parameter (dwb) - ignored

unrecognized parameter (0) - ignored

unrecognized parameter (pclm) - ignored

unrecognized parameter (0.12) - ignored

unrecognized parameter (pdiblc1) - ignored

unrecognized parameter (0.001) - ignored

unrecognized parameter (pdiblc2) - ignored

unrecognized parameter (0.001) - ignored

unrecognized parameter (pdiblcb) - ignored

unrecognized parameter (3.4e-008) - ignored

unrecognized parameter (drout) - ignored

unrecognized parameter (0.56) - ignored

unrecognized parameter (pvag) - ignored

unrecognized parameter (1e-020) - ignored

unrecognized parameter (delta) - ignored

unrecognized parameter (0.01) - ignored

unrecognized parameter (pscbe1) - ignored

unrecognized parameter (8.14e+008) - ignored

unrecognized parameter (pscbe2) - ignored

unrecognized parameter (9.58e-007) - ignored

unrecognized parameter (fprout) - ignored

unrecognized parameter (0.2) - ignored

unrecognized parameter (pdits) - ignored

unrecognized parameter (0.08) - ignored

unrecognized parameter (pditsd) - ignored

unrecognized parameter (0.23) - ignored

unrecognized parameter (pditsl) - ignored

unrecognized parameter (2.3e+006) - ignored

unrecognized parameter (rdsw) - ignored

unrecognized parameter (240) - ignored

unrecognized parameter (rsw) - ignored

unrecognized parameter (120) - ignored

unrecognized parameter (rdw) - ignored

unrecognized parameter (120) - ignored

unrecognized parameter (rdswmin) - ignored

unrecognized parameter (0) - ignored

unrecognized parameter (rdwmin) - ignored

unrecognized parameter (0) - ignored

unrecognized parameter (rswmin) - ignored

unrecognized parameter (0) - ignored

unrecognized parameter (prwg) - ignored

unrecognized parameter (3.22e-008) - ignored

unrecognized parameter (prwb) - ignored

unrecognized parameter (6.8e-011) - ignored

unrecognized parameter (wr) - ignored

unrecognized parameter (1) - ignored

unrecognized parameter (alpha0) - ignored

unrecognized parameter (0.074) - ignored

unrecognized parameter (alpha1) - ignored

unrecognized parameter (0.005) - ignored

unrecognized parameter (beta0) - ignored

unrecognized parameter (30) - ignored

unrecognized parameter (agidl) - ignored

unrecognized parameter (0.0002) - ignored

unrecognized parameter (bgidl) - ignored

unrecognized parameter (2.1e+009) - ignored

unrecognized parameter (cgidl) - ignored

unrecognized parameter (0.0002) - ignored

unrecognized parameter (egidl) - ignored

unrecognized parameter (0.8) - ignored

unrecognized parameter (aigbacc) - ignored

unrecognized parameter (0.012) - ignored

unrecognized parameter (bigbacc) - ignored

unrecognized parameter (0.0028) - ignored

unrecognized parameter (cigbacc) - ignored

unrecognized parameter (0.002) - ignored

unrecognized parameter (nigbacc) - ignored

unrecognized parameter (1) - ignored

unrecognized parameter (aigbinv) - ignored

unrecognized parameter (0.014) - ignored

unrecognized parameter (bigbinv) - ignored

unrecognized parameter (0.004) - ignored

unrecognized parameter (cigbinv) - ignored

unrecognized parameter (0.004) - ignored

unrecognized parameter (eigbinv) - ignored

unrecognized parameter (1.1) - ignored

unrecognized parameter (nigbinv) - ignored

unrecognized parameter (3) - ignored

unrecognized parameter (aigc) - ignored

unrecognized parameter (0.69) - ignored

unrecognized parameter (bigc) - ignored

unrecognized parameter (0.0012) - ignored

unrecognized parameter (cigc) - ignored

unrecognized parameter (0.0008) - ignored

unrecognized parameter (aigsd) - ignored

unrecognized parameter (0.0087) - ignored

unrecognized parameter (bigsd) - ignored

unrecognized parameter (0.0012) - ignored

unrecognized parameter (cigsd) - ignored

unrecognized parameter (0.0008) - ignored

unrecognized parameter (nigc) - ignored

unrecognized parameter (1) - ignored

unrecognized parameter (poxedge) - ignored

unrecognized parameter (1) - ignored

unrecognized parameter (pigcd) - ignored

unrecognized parameter (1) - ignored

unrecognized parameter (ntox) - ignored

unrecognized parameter (1) - ignored

unrecognized parameter (xrcrg1) - ignored

unrecognized parameter (12) - ignored

unrecognized parameter (xrcrg2) - ignored

unrecognized parameter (5) - ignored

unrecognized parameter (cgdl) - ignored

unrecognized parameter (2.653e-10) - ignored

unrecognized parameter (cgsl) - ignored

unrecognized parameter (2.653e-10) - ignored

unrecognized parameter (ckappas) - ignored

unrecognized parameter (0.03) - ignored

unrecognized parameter (ckappad) - ignored

unrecognized parameter (0.03) - ignored

unrecognized parameter (acde) - ignored

unrecognized parameter (1) - ignored

unrecognized parameter (moin) - ignored

unrecognized parameter (15) - ignored

unrecognized parameter (noff) - ignored

unrecognized parameter (0.9) - ignored

unrecognized parameter (voffcv) - ignored

unrecognized parameter (0.02) - ignored

unrecognized parameter (kt1) - ignored

unrecognized parameter (-0.11) - ignored

unrecognized parameter (kt1l) - ignored

unrecognized parameter (0) - ignored

unrecognized parameter (kt2) - ignored

unrecognized parameter (0.022) - ignored

unrecognized parameter (ute) - ignored

unrecognized parameter (-1.5) - ignored

unrecognized parameter (ua1) - ignored

unrecognized parameter (4.31e-009) - ignored

unrecognized parameter (ub1) - ignored

unrecognized parameter (7.61e-018) - ignored

unrecognized parameter (uc1) - ignored

unrecognized parameter (-5.6e-011) - ignored

unrecognized parameter (prt) - ignored

unrecognized parameter (0) - ignored

unrecognized parameter (at) - ignored

unrecognized parameter (33000) - ignored

unrecognized parameter (fnoimod) - ignored

unrecognized parameter (1) - ignored

unrecognized parameter (tnoimod) - ignored

unrecognized parameter (0) - ignored

unrecognized parameter (jss) - ignored

unrecognized parameter (0.0001) - ignored

unrecognized parameter (jsws) - ignored

unrecognized parameter (1e-011) - ignored

unrecognized parameter (jswgs) - ignored

unrecognized parameter (1e-010) - ignored

unrecognized parameter (njs) - ignored

unrecognized parameter (1) - ignored

unrecognized parameter (ijthsfwd) - ignored

unrecognized parameter (0.01) - ignored

unrecognized parameter (ijthsrev) - ignored

unrecognized parameter (0.001) - ignored

unrecognized parameter (bvs) - ignored

unrecognized parameter (10) - ignored

unrecognized parameter (xjbvs) - ignored

unrecognized parameter (1) - ignored

unrecognized parameter (jsd) - ignored

unrecognized parameter (0.0001) - ignored

unrecognized parameter (jswd) - ignored

unrecognized parameter (1e-011) - ignored

unrecognized parameter (jswgd) - ignored

unrecognized parameter (1e-010) - ignored

unrecognized parameter (njd) - ignored

unrecognized parameter (1) - ignored

unrecognized parameter (ijthdfwd) - ignored

unrecognized parameter (0.01) - ignored

unrecognized parameter (ijthdrev) - ignored

unrecognized parameter (0.001) - ignored

unrecognized parameter (bvd) - ignored

unrecognized parameter (10) - ignored

unrecognized parameter (xjbvd) - ignored

unrecognized parameter (1) - ignored

[...]

unrecognized parameter (rbdb) - ignored

unrecognized parameter (15) - ignored

unrecognized parameter (rbsb) - ignored

unrecognized parameter (15) - ignored

unrecognized parameter (ngcon) - ignored

unrecognized parameter (1) - ignored

Error on line 49 : .model  pmos  pmos  level = 54 version = 4.5.0          binunit = 1            paramchk= 1            mobmod  = 0 capmod  = 2            igcmod  = 1            igbmod  = 1            geomod  = 1 diomod  = 1            rdsmod  = 0            rbodymod= 1            rgatemod= 1 permod  = 1            acnqsmod= 0            trnqsmod= 0 tnom    = 27           toxe    = 2.35e-009    toxp    = 1.6e-009     toxm    = 2.35e-009 dtox    = 0.75e-9      epsrox  = 3.9          wint    = 5e-009       lint    = 10.5e-009 ll      = 0            wl      = 0            lln     = 1            wln     = 1 lw      = 0            ww      = 0            lwn     = 1            wwn     = 1 lwl     = 0            wwl     = 0            xpart   = 0            toxref  = 2.35e-009 xl      = -60e-9 vth0    = -0.321       k1      = 0.4          k2      = -0.01        k3      = 0 k3b     = 0            w0      = 2.5e-006     dvt0    = 1            dvt1    = 2 dvt2    = -0.032       dvt0w   = 0            dvt1w   = 0            dvt2w   = 0 dsub    = 0.1          minv    = 0.05         voffl   = 0            dvtp0   = 1e-009 dvtp1   = 0.05         lpe0    = 0            lpeb    = 0            xj      = 3.92e-008 ngate   = 2e+020       ndep    = 1.14e+018    nsd     = 2e+020       phin    = 0 cdsc    = 0.000258     cdscb   = 0            cdscd   = 6.1e-008     cit     = 0 voff    = -0.126       nfactor = 1.5          eta0    = 0.0092       etab    = 0 vfb     = 0.55         u0      = 0.00835      ua      = 2.0e-009     ub      = 0.5e-018 uc      = -3e-011      vsat    = 70000        a0      = 1.0          ags     = 1e-020 a1      = 0            a2      = 1            b0      = -1e-020      b1      = 0 keta    = -0.047       dwg     = 0            dwb     = 0            pclm    = 0.12 pdiblc1 = 0.001        pdiblc2 = 0.001        pdiblcb = 3.4e-008     drout   = 0.56 pvag    = 1e-020       delta   = 0.01         pscbe1  = 8.14e+008    pscbe2  = 9.58e-007 fprout  = 0.2          pdits   = 0.08         pditsd  = 0.23         pditsl  = 2.3e+006 rsh     = 5            rdsw    = 240          rsw     = 120          rdw     = 120 rdswmin = 0            rdwmin  = 0            rswmin  = 0            prwg    = 3.22e-008 prwb    = 6.8e-011     wr      = 1            alpha0  = 0.074        alpha1  = 0.005 beta0   = 30           agidl   = 0.0002       bgidl   = 2.1e+009     cgidl   = 0.0002 egidl   = 0.8 aigbacc = 0.012        bigbacc = 0.0028       cigbacc = 0.002 nigbacc = 1            aigbinv = 0.014        bigbinv = 0.004        cigbinv = 0.004 eigbinv = 1.1          nigbinv = 3            aigc    = 0.69         bigc    = 0.0012 cigc    = 0.0008       aigsd   = 0.0087       bigsd   = 0.0012       cigsd   = 0.0008 nigc    = 1            poxedge = 1            pigcd   = 1            ntox    = 1 xrcrg1  = 12           xrcrg2  = 5 cgso    = 2.4e-010     cgdo    = 2.4e-010     cgbo    = 2.56e-011    cgdl    = 2.653e-10 cgsl    = 2.653e-10    ckappas = 0.03         ckappad = 0.03         acde    = 1 moin    = 15           noff    = 0.9          voffcv  = 0.02 kt1     = -0.11        kt1l    = 0            kt2     = 0.022        ute     = -1.5 ua1     = 4.31e-009    ub1     = 7.61e-018    uc1     = -5.6e-011    prt     = 0 at      = 33000 fnoimod = 1            tnoimod = 0 jss     = 0.0001       jsws    = 1e-011       jswgs   = 1e-010       njs     = 1 ijthsfwd= 0.01         ijthsrev= 0.001        bvs     = 10           xjbvs   = 1 jsd     = 0.0001       jswd    = 1e-011       jswgd   = 1e-010       njd     = 1 ijthdfwd= 0.01         ijthdrev= 0.001        bvd     = 10           xjbvd   = 1 pbs     = 1            cjs     = 0.0005       mjs     = 0.5          pbsws   = 1 cjsws   = 5e-010       mjsws   = 0.33         pbswgs  = 1            cjswgs  = 3e-010 mjswgs  = 0.33         pbd     = 1            cjd     = 0.0005       mjd     = 0.5 pbswd   = 1            cjswd   = 5e-010       mjswd   = 0.33         pbswgd  = 1 cjswgd  = 5e-010       mjswgd  = 0.33         tpb     = 0.005        tcj     = 0.001 tpbsw   = 0.005        tcjsw   = 0.001        tpbswg  = 0.005        tcjswg  = 0.001 xtis    = 3            xtid    = 3 dmcg    = 0e-006       dmci    = 0e-006       dmdg    = 0e-006       dmcgt   = 0e-007 dwj     = 0.0e-008     xgw     = 0e-007       xgl     = 0e-008 rshg    = 0.4          gbmin   = 1e-010       rbpb    = 5            rbpd    = 15 rbps    = 15           rbdb    = 15           rbsb    = 15           ngcon   = 1
unrecognized parameter (version) - ignored

unrecognized parameter (4.5.0) - ignored

unrecognized parameter (binunit) - ignored

unrecognized parameter (1) - ignored

unrecognized parameter (paramchk) - ignored

unrecognized parameter (1) - ignored

unrecognized parameter (mobmod) - ignored

unrecognized parameter (0) - ignored

unrecognized parameter (capmod) - ignored

unrecognized parameter (2) - ignored

unrecognized parameter (igcmod) - ignored

unrecognized parameter (1) - ignored

unrecognized parameter (igbmod) - ignored

unrecognized parameter (1) - ignored

unrecognized parameter (geomod) - ignored

unrecognized parameter (1) - ignored

unrecognized parameter (diomod) - ignored

unrecognized parameter (1) - ignored

unrecognized parameter (rdsmod) - ignored

unrecognized parameter (0) - ignored

unrecognized parameter (rbodymod) - ignored

unrecognized parameter (1) - ignored

unrecognized parameter (rgatemod) - ignored

unrecognized parameter (1) - ignored

unrecognized parameter (permod) - ignored

unrecognized parameter (1) - ignored

unrecognized parameter (acnqsmod) - ignored

unrecognized parameter (0) - ignored

unrecognized parameter (trnqsmod) - ignored

unrecognized parameter (0) - ignored

unrecognized parameter (tnom) - ignored

unrecognized parameter (27) - ignored

unrecognized parameter (toxe) - ignored

unrecognized parameter (2.35e-009) - ignored

unrecognized parameter (toxp) - ignored

unrecognized parameter (1.6e-009) - ignored

unrecognized parameter (toxm) - ignored

unrecognized parameter (2.35e-009) - ignored

unrecognized parameter (dtox) - ignored

unrecognized parameter (0.75e-9) - ignored

unrecognized parameter (epsrox) - ignored

unrecognized parameter (3.9) - ignored

unrecognized parameter (wint) - ignored

unrecognized parameter (5e-009) - ignored

unrecognized parameter (lint) - ignored

unrecognized parameter (10.5e-009) - ignored

unrecognized parameter (ll) - ignored

unrecognized parameter (0) - ignored

unrecognized parameter (wl) - ignored

unrecognized parameter (0) - ignored

unrecognized parameter (lln) - ignored

unrecognized parameter (1) - ignored

unrecognized parameter (wln) - ignored

unrecognized parameter (1) - ignored

unrecognized parameter (lw) - ignored

unrecognized parameter (0) - ignored

unrecognized parameter (ww) - ignored

unrecognized parameter (0) - ignored

unrecognized parameter (lwn) - ignored

unrecognized parameter (1) - ignored

unrecognized parameter (wwn) - ignored

unrecognized parameter (1) - ignored

unrecognized parameter (lwl) - ignored

unrecognized parameter (0) - ignored

unrecognized parameter (wwl) - ignored

unrecognized parameter (0) - ignored

unrecognized parameter (toxref) - ignored

unrecognized parameter (2.35e-009) - ignored

unrecognized parameter (xl) - ignored

unrecognized parameter (-60e-9) - ignored

unrecognized parameter (vth0) - ignored

unrecognized parameter (-0.321) - ignored

unrecognized parameter (k3) - ignored

unrecognized parameter (0) - ignored

unrecognized parameter (k3b) - ignored

unrecognized parameter (0) - ignored

unrecognized parameter (w0) - ignored

unrecognized parameter (2.5e-006) - ignored

unrecognized parameter (dvt0) - ignored

unrecognized parameter (1) - ignored

unrecognized parameter (dvt1) - ignored

unrecognized parameter (2) - ignored

unrecognized parameter (dvt2) - ignored

unrecognized parameter (-0.032) - ignored

unrecognized parameter (dvt0w) - ignored

unrecognized parameter (0) - ignored

unrecognized parameter (dvt1w) - ignored

unrecognized parameter (0) - ignored

unrecognized parameter (dvt2w) - ignored

unrecognized parameter (0) - ignored

unrecognized parameter (dsub) - ignored

unrecognized parameter (0.1) - ignored

unrecognized parameter (minv) - ignored

unrecognized parameter (0.05) - ignored

unrecognized parameter (voffl) - ignored

unrecognized parameter (0) - ignored

unrecognized parameter (dvtp0) - ignored

unrecognized parameter (1e-009) - ignored

unrecognized parameter (dvtp1) - ignored

unrecognized parameter (0.05) - ignored

unrecognized parameter (lpe0) - ignored

unrecognized parameter (0) - ignored

unrecognized parameter (lpeb) - ignored

unrecognized parameter (0) - ignored

unrecognized parameter (xj) - ignored

unrecognized parameter (3.92e-008) - ignored

unrecognized parameter (ngate) - ignored

unrecognized parameter (2e+020) - ignored

unrecognized parameter (ndep) - ignored

unrecognized parameter (1.14e+018) - ignored

unrecognized parameter (nsd) - ignored

unrecognized parameter (2e+020) - ignored

unrecognized parameter (phin) - ignored

unrecognized parameter (0) - ignored

unrecognized parameter (cdsc) - ignored

unrecognized parameter (0.000258) - ignored

unrecognized parameter (cdscb) - ignored

unrecognized parameter (0) - ignored

unrecognized parameter (cdscd) - ignored

unrecognized parameter (6.1e-008) - ignored

unrecognized parameter (cit) - ignored

unrecognized parameter (0) - ignored

unrecognized parameter (voff) - ignored

unrecognized parameter (-0.126) - ignored

unrecognized parameter (nfactor) - ignored

unrecognized parameter (1.5) - ignored

unrecognized parameter (u0) - ignored

unrecognized parameter (0.00835) - ignored

unrecognized parameter (ua) - ignored

unrecognized parameter (2.0e-009) - ignored

unrecognized parameter (ub) - ignored

unrecognized parameter (0.5e-018) - ignored

unrecognized parameter (uc) - ignored

unrecognized parameter (-3e-011) - ignored

unrecognized parameter (vsat) - ignored

unrecognized parameter (70000) - ignored

unrecognized parameter (a0) - ignored

unrecognized parameter (1.0) - ignored

unrecognized parameter (ags) - ignored

unrecognized parameter (1e-020) - ignored

unrecognized parameter (a1) - ignored

unrecognized parameter (0) - ignored

unrecognized parameter (a2) - ignored

unrecognized parameter (1) - ignored

unrecognized parameter (b0) - ignored

unrecognized parameter (-1e-020) - ignored

unrecognized parameter (b1) - ignored

unrecognized parameter (0) - ignored

unrecognized parameter (keta) - ignored

unrecognized parameter (-0.047) - ignored

unrecognized parameter (dwg) - ignored

unrecognized parameter (0) - ignored

unrecognized parameter (dwb) - ignored

unrecognized parameter (0) - ignored

unrecognized parameter (pclm) - ignored

unrecognized parameter (0.12) - ignored

unrecognized parameter (pdiblc1) - ignored

unrecognized parameter (0.001) - ignored

unrecognized parameter (pdiblc2) - ignored

unrecognized parameter (0.001) - ignored

unrecognized parameter (pdiblcb) - ignored

unrecognized parameter (3.4e-008) - ignored

unrecognized parameter (drout) - ignored

unrecognized parameter (0.56) - ignored

unrecognized parameter (pvag) - ignored

unrecognized parameter (1e-020) - ignored

unrecognized parameter (delta) - ignored

unrecognized parameter (0.01) - ignored

unrecognized parameter (pscbe1) - ignored

unrecognized parameter (8.14e+008) - ignored

unrecognized parameter (pscbe2) - ignored

unrecognized parameter (9.58e-007) - ignored

unrecognized parameter (fprout) - ignored

unrecognized parameter (0.2) - ignored

unrecognized parameter (pdits) - ignored

unrecognized parameter (0.08) - ignored

unrecognized parameter (pditsd) - ignored

unrecognized parameter (0.23) - ignored

unrecognized parameter (pditsl) - ignored

unrecognized parameter (2.3e+006) - ignored

unrecognized parameter (rdsw) - ignored

unrecognized parameter (240) - ignored

unrecognized parameter (rsw) - ignored

unrecognized parameter (120) - ignored

unrecognized parameter (rdw) - ignored

unrecognized parameter (120) - ignored

unrecognized parameter (rdswmin) - ignored

unrecognized parameter (0) - ignored

unrecognized parameter (rdwmin) - ignored

unrecognized parameter (0) - ignored

unrecognized parameter (rswmin) - ignored

unrecognized parameter (0) - ignored

unrecognized parameter (prwg) - ignored

unrecognized parameter (3.22e-008) - ignored

unrecognized parameter (prwb) - ignored

unrecognized parameter (6.8e-011) - ignored

unrecognized parameter (wr) - ignored

unrecognized parameter (1) - ignored

unrecognized parameter (alpha0) - ignored

unrecognized parameter (0.074) - ignored

unrecognized parameter (alpha1) - ignored

unrecognized parameter (0.005) - ignored

unrecognized parameter (beta0) - ignored

unrecognized parameter (30) - ignored

unrecognized parameter (agidl) - ignored

unrecognized parameter (0.0002) - ignored

unrecognized parameter (bgidl) - ignored

unrecognized parameter (2.1e+009) - ignored

unrecognized parameter (cgidl) - ignored

unrecognized parameter (0.0002) - ignored

unrecognized parameter (egidl) - ignored

unrecognized parameter (0.8) - ignored

unrecognized parameter (aigbacc) - ignored

unrecognized parameter (0.012) - ignored

unrecognized parameter (bigbacc) - ignored

unrecognized parameter (0.0028) - ignored

unrecognized parameter (cigbacc) - ignored

unrecognized parameter (0.002) - ignored

unrecognized parameter (nigbacc) - ignored

unrecognized parameter (1) - ignored

unrecognized parameter (aigbinv) - ignored

unrecognized parameter (0.014) - ignored

unrecognized parameter (bigbinv) - ignored

unrecognized parameter (0.004) - ignored

unrecognized parameter (cigbinv) - ignored

unrecognized parameter (0.004) - ignored

unrecognized parameter (eigbinv) - ignored

unrecognized parameter (1.1) - ignored

unrecognized parameter (nigbinv) - ignored

unrecognized parameter (3) - ignored

unrecognized parameter (aigc) - ignored

unrecognized parameter (0.69) - ignored

unrecognized parameter (bigc) - ignored

unrecognized parameter (0.0012) - ignored

unrecognized parameter (cigc) - ignored

unrecognized parameter (0.0008) - ignored

unrecognized parameter (aigsd) - ignored

unrecognized parameter (0.0087) - ignored

unrecognized parameter (bigsd) - ignored

unrecognized parameter (0.0012) - ignored

unrecognized parameter (cigsd) - ignored

unrecognized parameter (0.0008) - ignored

unrecognized parameter (nigc) - ignored

unrecognized parameter (1) - ignored

unrecognized parameter (poxedge) - ignored

unrecognized parameter (1) - ignored

unrecognized parameter (pigcd) - ignored

unrecognized parameter (1) - ignored

unrecognized parameter (ntox) - ignored

unrecognized parameter (1) - ignored

unrecognized parameter (xrcrg1) - ignored

unrecognized parameter (12) - ignored

unrecognized parameter (xrcrg2) - ignored

unrecognized parameter (5) - ignored

unrecognized parameter (cgdl) - ignored

unrecognized parameter (2.653e-10) - ignored

unrecognized parameter (cgsl) - ignored

unrecognized parameter (2.653e-10) - ignored

unrecognized parameter (ckappas) - ignored

unrecognized parameter (0.03) - ignored

unrecognized parameter (ckappad) - ignored

unrecognized parameter (0.03) - ignored

unrecognized parameter (acde) - ignored

unrecognized parameter (1) - ignored

unrecognized parameter (moin) - ignored

unrecognized parameter (15) - ignored

unrecognized parameter (noff) - ignored

unrecognized parameter (0.9) - ignored

unrecognized parameter (voffcv) - ignored

unrecognized parameter (0.02) - ignored

unrecognized parameter (kt1) - ignored

unrecognized parameter (-0.11) - ignored

unrecognized parameter (kt1l) - ignored

unrecognized parameter (0) - ignored

unrecognized parameter (kt2) - ignored

unrecognized parameter (0.022) - ignored

unrecognized parameter (ute) - ignored

unrecognized parameter (-1.5) - ignored

unrecognized parameter (ua1) - ignored

unrecognized parameter (4.31e-009) - ignored

unrecognized parameter (ub1) - ignored

unrecognized parameter (7.61e-018) - ignored

unrecognized parameter (uc1) - ignored

unrecognized parameter (-5.6e-011) - ignored

unrecognized parameter (prt) - ignored

unrecognized parameter (0) - ignored

unrecognized parameter (at) - ignored

unrecognized parameter (33000) - ignored

unrecognized parameter (fnoimod) - ignored

unrecognized parameter (1) - ignored

unrecognized parameter (tnoimod) - ignored

unrecognized parameter (0) - ignored

unrecognized parameter (jss) - ignored

unrecognized parameter (0.0001) - ignored

unrecognized parameter (jsws) - ignored

unrecognized parameter (1e-011) - ignored

unrecognized parameter (jswgs) - ignored

unrecognized parameter (1e-010) - ignored

unrecognized parameter (njs) - ignored

unrecognized parameter (1) - ignored

unrecognized parameter (ijthsfwd) - ignored

unrecognized parameter (0.01) - ignored

unrecognized parameter (ijthsrev) - ignored

unrecognized parameter (0.001) - ignored

unrecognized parameter (bvs) - ignored

unrecognized parameter (10) - ignored

unrecognized parameter (xjbvs) - ignored

unrecognized parameter (1) - ignored

unrecognized parameter (jsd) - ignored

unrecognized parameter (0.0001) - ignored

unrecognized parameter (jswd) - ignored

unrecognized parameter (1e-011) - ignored

unrecognized parameter (jswgd) - ignored

unrecognized parameter (1e-010) - ignored

unrecognized parameter (njd) - ignored

unrecognized parameter (1) - ignored

unrecognized parameter (ijthdfwd) - ignored

unrecognized parameter (0.01) - ignored

unrecognized parameter (ijthdrev) - ignored

unrecognized parameter (0.001) - ignored

unrecognized parameter (bvd) - ignored

unrecognized parameter (10) - ignored

unrecognized parameter (xjbvd) - ignored

unrecognized parameter (1) - ignored

unrecognized parameter (pbs) - ignored

unrecognized parameter (1) - ignored

unrecognized parameter (cjs) - ignored

unrecognized parameter (0.0005) - ignored

unrecognized parameter (mjs) - ignored

unrecognized parameter (0.5) - ignored

unrecognized parameter (pbsws) - ignored

unrecognized parameter (1) - ignored

unrecognized parameter (cjsws) - ignored

unrecognized parameter (5e-010) - ignored

unrecognized parameter (mjsws) - ignored

unrecognized parameter (0.33) - ignored

unrecognized parameter (pbswgs) - ignored

unrecognized parameter (1) - ignored

unrecognized parameter (cjswgs) - ignored

unrecognized parameter (3e-010) - ignored

unrecognized parameter (mjswgs) - ignored

unrecognized parameter (0.33) - ignored

unrecognized parameter (pbd) - ignored

unrecognized parameter (1) - ignored

unrecognized parameter (cjd) - ignored

unrecognized parameter (0.0005) - ignored

unrecognized parameter (mjd) - ignored

unrecognized parameter (0.5) - ignored

unrecognized parameter (pbswd) - ignored

unrecognized parameter (1) - ignored

unrecognized parameter (cjswd) - ignored

unrecognized parameter (5e-010) - ignored

unrecognized parameter (mjswd) - ignored

unrecognized parameter (0.33) - ignored

unrecognized parameter (pbswgd) - ignored

unrecognized parameter (1) - ignored

unrecognized parameter (cjswgd) - ignored

unrecognized parameter (5e-010) - ignored

unrecognized parameter (mjswgd) - ignored

unrecognized parameter (0.33) - ignored

unrecognized parameter (tpb) - ignored

unrecognized parameter (0.005) - ignored

unrecognized parameter (tcj) - ignored

unrecognized parameter (0.001) - ignored

unrecognized parameter (tpbsw) - ignored

unrecognized parameter (0.005) - ignored

unrecognized parameter (tcjsw) - ignored

unrecognized parameter (0.001) - ignored

unrecognized parameter (tpbswg) - ignored

unrecognized parameter (0.005) - ignored

unrecognized parameter 